*SPEF "ieee 1481-1999"
*DESIGN "clk_rst"
*DATE "00:11:41 Wednesday June 18, 2025"
*VENDOR "The OpenROAD Project"
*PROGRAM "OpenROAD"
*VERSION "edf00dff99f6c40d67a30c0e22a8191c5d2ed9d6"
*DESIGN_FLOW "NAME_SCOPE LOCAL" "PIN_CAP NONE"
*DIVIDER /
*DELIMITER :
*BUS_DELIMITER []
*T_UNIT 1 NS
*C_UNIT 1 PF
*R_UNIT 1 OHM
*L_UNIT 1 HENRY

*NAME_MAP
*3 clk
*4 clk_mon
*5 clk_mon_sel[0]
*6 clk_mon_sel[1]
*7 clk_mon_sel[2]
*8 clk_mux1_out
*9 dll_clk
*10 dll_clk90
*11 hkrst_n
*12 hsxo
*13 hsxo_en
*14 hsxo_en_tf
*15 hsxo_standby
*16 hsxo_standby_tf
*17 lsxo
*18 lsxo_en
*19 lsxo_en_tf
*20 lsxo_standby
*21 lsxo_standby_tf
*22 pclk
*23 por_n
*24 rcosc_16m
*25 rcosc_16m_en
*26 rcosc_16m_en_tf
*27 rcosc_500k
*28 rcosc_500k_en
*29 rcosc_500k_en_tf
*30 rst_n
*31 sel_clkdiv0[0]
*32 sel_clkdiv0[1]
*33 sel_clkdiv0[2]
*34 sel_clkdiv1[0]
*35 sel_clkdiv1[1]
*36 sel_clkdiv1[2]
*37 sel_clkdiv2[0]
*38 sel_clkdiv2[1]
*39 sel_clkdiv2[2]
*40 sel_mux0
*41 sel_mux1
*42 sel_mux2
*43 sel_mux3
*44 sel_mux4
*45 sel_mux5
*46 usb_clk
*47 user_clk
*48 user_dly_sel[0]
*49 user_dly_sel[1]
*50 xclk
*51 xrst_n
*52 CLKDIV_0\.CLK_DIV_MUX\.clk0
*53 CLKDIV_0\.CLK_DIV_MUX\.clk1
*54 CLKDIV_0\.CLK_DIV_MUX\.clk2
*55 CLKDIV_0\.CLK_DIV_MUX\.clk3
*56 CLKDIV_0\.CLK_DIV_MUX\.clko
*57 CLKDIV_0\.CLK_DIV_MUX\.m1\.Q1a
*58 CLKDIV_0\.CLK_DIV_MUX\.m1\.Q1b
*59 CLKDIV_0\.CLK_DIV_MUX\.m1\.Q2a
*60 CLKDIV_0\.CLK_DIV_MUX\.m1\.Q2b
*61 CLKDIV_0\.CLK_DIV_MUX\.m1\.q1a_in
*62 CLKDIV_0\.CLK_DIV_MUX\.m1\.q2a_in
*63 CLKDIV_0\.CLK_DIV_MUX\.m2\.Q1a
*64 CLKDIV_0\.CLK_DIV_MUX\.m2\.Q1b
*65 CLKDIV_0\.CLK_DIV_MUX\.m2\.Q2a
*66 CLKDIV_0\.CLK_DIV_MUX\.m2\.Q2b
*67 CLKDIV_0\.CLK_DIV_MUX\.m2\.q1a_in
*68 CLKDIV_0\.CLK_DIV_MUX\.m2\.q2a_in
*69 CLKDIV_0\.CLK_DIV_MUX\.m3\.Q1a
*70 CLKDIV_0\.CLK_DIV_MUX\.m3\.Q1b
*71 CLKDIV_0\.CLK_DIV_MUX\.m3\.Q2a
*72 CLKDIV_0\.CLK_DIV_MUX\.m3\.Q2b
*73 CLKDIV_0\.CLK_DIV_MUX\.m3\.q1a_in
*74 CLKDIV_0\.CLK_DIV_MUX\.m3\.q2a_in
*75 CLKDIV_0\.DIV_BYPASS_MUX\.Q1a
*76 CLKDIV_0\.DIV_BYPASS_MUX\.Q1b
*77 CLKDIV_0\.DIV_BYPASS_MUX\.Q2a
*78 CLKDIV_0\.DIV_BYPASS_MUX\.Q2b
*79 CLKDIV_0\.DIV_BYPASS_MUX\.clk1
*80 CLKDIV_0\.DIV_BYPASS_MUX\.q1a_in
*81 CLKDIV_0\.DIV_BYPASS_MUX\.q2a_in
*82 CLKDIV_1\.CLK_DIV_MUX\.clk0
*83 CLKDIV_1\.CLK_DIV_MUX\.clk1
*84 CLKDIV_1\.CLK_DIV_MUX\.clk2
*85 CLKDIV_1\.CLK_DIV_MUX\.clk3
*86 CLKDIV_1\.CLK_DIV_MUX\.clko
*87 CLKDIV_1\.CLK_DIV_MUX\.m1\.Q1a
*88 CLKDIV_1\.CLK_DIV_MUX\.m1\.Q1b
*89 CLKDIV_1\.CLK_DIV_MUX\.m1\.Q2a
*90 CLKDIV_1\.CLK_DIV_MUX\.m1\.Q2b
*91 CLKDIV_1\.CLK_DIV_MUX\.m1\.q1a_in
*92 CLKDIV_1\.CLK_DIV_MUX\.m1\.q2a_in
*93 CLKDIV_1\.CLK_DIV_MUX\.m2\.Q1a
*94 CLKDIV_1\.CLK_DIV_MUX\.m2\.Q1b
*95 CLKDIV_1\.CLK_DIV_MUX\.m2\.Q2a
*96 CLKDIV_1\.CLK_DIV_MUX\.m2\.Q2b
*97 CLKDIV_1\.CLK_DIV_MUX\.m2\.q1a_in
*98 CLKDIV_1\.CLK_DIV_MUX\.m2\.q2a_in
*99 CLKDIV_1\.CLK_DIV_MUX\.m3\.Q1a
*100 CLKDIV_1\.CLK_DIV_MUX\.m3\.Q1b
*101 CLKDIV_1\.CLK_DIV_MUX\.m3\.Q2a
*102 CLKDIV_1\.CLK_DIV_MUX\.m3\.Q2b
*103 CLKDIV_1\.CLK_DIV_MUX\.m3\.q1a_in
*104 CLKDIV_1\.CLK_DIV_MUX\.m3\.q2a_in
*105 CLKDIV_1\.DIV_BYPASS_MUX\.Q1a
*106 CLKDIV_1\.DIV_BYPASS_MUX\.Q1b
*107 CLKDIV_1\.DIV_BYPASS_MUX\.Q2a
*108 CLKDIV_1\.DIV_BYPASS_MUX\.Q2b
*109 CLKDIV_1\.DIV_BYPASS_MUX\.clk0
*110 CLKDIV_1\.DIV_BYPASS_MUX\.clk1
*111 CLKDIV_1\.DIV_BYPASS_MUX\.clko
*112 CLKDIV_1\.DIV_BYPASS_MUX\.q1a_in
*113 CLKDIV_1\.DIV_BYPASS_MUX\.q2a_in
*114 CLKDIV_2\.CLK_DIV_MUX\.clk0
*115 CLKDIV_2\.CLK_DIV_MUX\.clk1
*116 CLKDIV_2\.CLK_DIV_MUX\.clk2
*117 CLKDIV_2\.CLK_DIV_MUX\.clk3
*118 CLKDIV_2\.CLK_DIV_MUX\.clko
*119 CLKDIV_2\.CLK_DIV_MUX\.m1\.Q1a
*120 CLKDIV_2\.CLK_DIV_MUX\.m1\.Q1b
*121 CLKDIV_2\.CLK_DIV_MUX\.m1\.Q2a
*122 CLKDIV_2\.CLK_DIV_MUX\.m1\.Q2b
*123 CLKDIV_2\.CLK_DIV_MUX\.m1\.q1a_in
*124 CLKDIV_2\.CLK_DIV_MUX\.m1\.q2a_in
*125 CLKDIV_2\.CLK_DIV_MUX\.m2\.Q1a
*126 CLKDIV_2\.CLK_DIV_MUX\.m2\.Q1b
*127 CLKDIV_2\.CLK_DIV_MUX\.m2\.Q2a
*128 CLKDIV_2\.CLK_DIV_MUX\.m2\.Q2b
*129 CLKDIV_2\.CLK_DIV_MUX\.m2\.q1a_in
*130 CLKDIV_2\.CLK_DIV_MUX\.m2\.q2a_in
*131 CLKDIV_2\.CLK_DIV_MUX\.m3\.Q1a
*132 CLKDIV_2\.CLK_DIV_MUX\.m3\.Q1b
*133 CLKDIV_2\.CLK_DIV_MUX\.m3\.Q2a
*134 CLKDIV_2\.CLK_DIV_MUX\.m3\.Q2b
*135 CLKDIV_2\.CLK_DIV_MUX\.m3\.q1a_in
*136 CLKDIV_2\.CLK_DIV_MUX\.m3\.q2a_in
*137 CLKDIV_2\.DIV_BYPASS_MUX\.Q1a
*138 CLKDIV_2\.DIV_BYPASS_MUX\.Q1b
*139 CLKDIV_2\.DIV_BYPASS_MUX\.Q2a
*140 CLKDIV_2\.DIV_BYPASS_MUX\.Q2b
*141 CLKDIV_2\.DIV_BYPASS_MUX\.clk1
*142 CLKDIV_2\.DIV_BYPASS_MUX\.clko
*143 CLKDIV_2\.DIV_BYPASS_MUX\.q1a_in
*144 CLKDIV_2\.DIV_BYPASS_MUX\.q2a_in
*145 CLKMUX_0\.Q1a
*146 CLKMUX_0\.Q1b
*147 CLKMUX_0\.Q2a
*148 CLKMUX_0\.Q2b
*149 CLKMUX_0\.q1a_in
*150 CLKMUX_0\.q2a_in
*151 CLKMUX_1\.Q1a
*152 CLKMUX_1\.Q1b
*153 CLKMUX_1\.Q2a
*154 CLKMUX_1\.Q2b
*155 CLKMUX_1\.q1a_in
*156 CLKMUX_1\.q2a_in
*157 CLKMUX_2\.Q1a
*158 CLKMUX_2\.Q1b
*159 CLKMUX_2\.Q2a
*160 CLKMUX_2\.Q2b
*161 CLKMUX_2\.q1a_in
*162 CLKMUX_2\.q2a_in
*163 CLKMUX_3\.Q1a
*164 CLKMUX_3\.Q1b
*165 CLKMUX_3\.Q2a
*166 CLKMUX_3\.Q2b
*167 CLKMUX_3\.q1a_in
*168 CLKMUX_3\.q2a_in
*169 CLKMUX_4\.Q1a
*170 CLKMUX_4\.Q1b
*171 CLKMUX_4\.Q2a
*172 CLKMUX_4\.Q2b
*173 CLKMUX_4\.clko
*174 CLKMUX_4\.q1a_in
*175 CLKMUX_4\.q2a_in
*176 CLKMUX_5\.Q1a
*177 CLKMUX_5\.Q1b
*178 CLKMUX_5\.Q2a
*179 CLKMUX_5\.Q2b
*180 CLKMUX_5\.q1a_in
*181 CLKMUX_5\.q2a_in
*182 CLK_MON_MUX_0\.m1\.Q1a
*183 CLK_MON_MUX_0\.m1\.Q1b
*184 CLK_MON_MUX_0\.m1\.Q2a
*185 CLK_MON_MUX_0\.m1\.Q2b
*186 CLK_MON_MUX_0\.m1\.q1a_in
*187 CLK_MON_MUX_0\.m1\.q2a_in
*188 CLK_MON_MUX_0\.m2\.Q1a
*189 CLK_MON_MUX_0\.m2\.Q1b
*190 CLK_MON_MUX_0\.m2\.Q2a
*191 CLK_MON_MUX_0\.m2\.Q2b
*192 CLK_MON_MUX_0\.m2\.q1a_in
*193 CLK_MON_MUX_0\.m2\.q2a_in
*194 CLK_MON_MUX_0\.m3\.Q1a
*195 CLK_MON_MUX_0\.m3\.Q1b
*196 CLK_MON_MUX_0\.m3\.Q2a
*197 CLK_MON_MUX_0\.m3\.Q2b
*198 CLK_MON_MUX_0\.m3\.q1a_in
*199 CLK_MON_MUX_0\.m3\.q2a_in
*200 CLK_MON_MUX_1\.Q1a
*201 CLK_MON_MUX_1\.Q1b
*202 CLK_MON_MUX_1\.Q2a
*203 CLK_MON_MUX_1\.Q2b
*204 CLK_MON_MUX_1\.clko
*205 CLK_MON_MUX_1\.q1a_in
*206 CLK_MON_MUX_1\.q2a_in
*207 RST_SYNC\.delay\[0\]
*208 RST_SYNC\.delay\[1\]
*209 RST_SYNC\.delay\[2\]
*210 RST_SYNC\.rst_n_in
*211 _000_
*212 _001_
*213 _002_
*214 _003_
*215 _004_
*216 _005_
*217 _006_
*218 _007_
*219 _008_
*220 _009_
*221 _010_
*222 _011_
*223 _012_
*224 _013_
*225 _014_
*226 _015_
*227 _016_
*228 _017_
*229 _018_
*230 _019_
*231 _020_
*232 _021_
*233 _022_
*234 _023_
*235 _024_
*236 _025_
*237 _026_
*238 _027_
*239 _028_
*240 _029_
*241 _030_
*242 _031_
*243 _032_
*244 _033_
*245 _034_
*246 _035_
*247 _036_
*248 _037_
*249 _038_
*250 _039_
*251 _040_
*252 _041_
*253 _042_
*254 _043_
*255 _044_
*256 _045_
*257 _046_
*258 _047_
*259 _048_
*260 _049_
*261 _050_
*262 _051_
*263 _052_
*264 _053_
*265 _054_
*266 _055_
*267 _056_
*268 _057_
*269 _058_
*270 _059_
*271 _060_
*272 _061_
*273 _062_
*274 _063_
*275 _064_
*276 _065_
*277 _066_
*278 _067_
*279 _068_
*280 _069_
*281 _070_
*282 _071_
*283 _072_
*284 _073_
*285 _074_
*286 _075_
*287 _076_
*288 _077_
*289 _078_
*290 _079_
*291 _080_
*292 _081_
*293 _082_
*294 _083_
*295 _084_
*296 _085_
*297 _086_
*298 _087_
*299 _088_
*300 _089_
*301 _090_
*302 _091_
*303 _092_
*304 _093_
*305 _094_
*306 _095_
*307 clk_div1_delay\.dly\[1\]
*308 clk_div1_delay\.dly\[2\]
*309 clk_div1_delay\.dly\[3\]
*310 clk_div1_delay\.dly\[4\]
*311 clk_div1_delay\.dly\[5\]
*312 clk_div1_delay\.dly\[6\]
*313 clk_div1_delay\.dly\[7\]
*314 clk_div1_delay\.dly\[8\]
*315 clk_mon_div\[0\]
*316 net1
*317 net10
*318 net11
*319 net12
*320 net2
*321 net3
*322 net4
*323 net5
*324 net6
*325 net7
*326 net8
*327 net9
*328 pclk_div
*329 pclk_div_skewed_delay\.dly\[1\]
*330 pclk_div_skewed_delay\.dly\[2\]
*331 pclk_div_skewed_delay\.dly\[3\]
*332 pclk_div_skewed_delay\.dly\[4\]
*333 pclk_div_skewed_delay\.dly\[5\]
*334 usb_clk_delayed\.dly\[1\]
*335 usb_clk_delayed\.dly\[2\]
*336 usb_clk_delayed\.dly\[3\]
*337 usb_clk_delayed\.dly\[4\]
*338 usb_clk_delayed\.dly\[5\]
*339 usb_clk_delayed\.dly\[6\]
*340 usb_clk_delayed\.dly\[7\]
*341 usb_clk_delayed\.dly\[8\]
*342 usb_clk_delayed\.dly\[9\]
*343 user_clk_delay\.dly\[1\]
*344 FILLER_0_134
*345 FILLER_0_137
*346 FILLER_0_149
*347 FILLER_0_152
*348 FILLER_0_155
*349 FILLER_0_158
*350 FILLER_0_161
*351 FILLER_0_164
*352 FILLER_0_167
*353 FILLER_0_169
*354 FILLER_0_172
*355 FILLER_0_175
*356 FILLER_0_178
*357 FILLER_0_181
*358 FILLER_0_184
*359 FILLER_0_187
*360 FILLER_0_190
*361 FILLER_0_193
*362 FILLER_0_197
*363 FILLER_0_200
*364 FILLER_0_203
*365 FILLER_0_206
*366 FILLER_0_209
*367 FILLER_0_212
*368 FILLER_0_215
*369 FILLER_0_218
*370 FILLER_0_221
*371 FILLER_0_225
*372 FILLER_0_228
*373 FILLER_0_231
*374 FILLER_0_24
*375 FILLER_0_55
*376 FILLER_0_83
*377 FILLER_0_85
*378 FILLER_10_183
*379 FILLER_10_186
*380 FILLER_10_189
*381 FILLER_10_192
*382 FILLER_10_195
*383 FILLER_10_197
*384 FILLER_10_200
*385 FILLER_10_203
*386 FILLER_10_206
*387 FILLER_10_209
*388 FILLER_10_212
*389 FILLER_10_215
*390 FILLER_10_218
*391 FILLER_10_221
*392 FILLER_10_224
*393 FILLER_10_227
*394 FILLER_10_230
*395 FILLER_10_29
*396 FILLER_10_3
*397 FILLER_10_32
*398 FILLER_10_44
*399 FILLER_10_6
*400 FILLER_10_80
*401 FILLER_10_83
*402 FILLER_10_85
*403 FILLER_11_106
*404 FILLER_11_111
*405 FILLER_11_113
*406 FILLER_11_116
*407 FILLER_11_119
*408 FILLER_11_122
*409 FILLER_11_125
*410 FILLER_11_166
*411 FILLER_11_169
*412 FILLER_11_172
*413 FILLER_11_175
*414 FILLER_11_178
*415 FILLER_11_181
*416 FILLER_11_184
*417 FILLER_11_187
*418 FILLER_11_190
*419 FILLER_11_193
*420 FILLER_11_196
*421 FILLER_11_199
*422 FILLER_11_202
*423 FILLER_11_205
*424 FILLER_11_208
*425 FILLER_11_211
*426 FILLER_11_214
*427 FILLER_11_217
*428 FILLER_11_220
*429 FILLER_11_223
*430 FILLER_11_225
*431 FILLER_11_228
*432 FILLER_11_231
*433 FILLER_11_48
*434 FILLER_11_51
*435 FILLER_11_54
*436 FILLER_11_57
*437 FILLER_11_66
*438 FILLER_11_76
*439 FILLER_12_139
*440 FILLER_12_144
*441 FILLER_12_167
*442 FILLER_12_170
*443 FILLER_12_173
*444 FILLER_12_176
*445 FILLER_12_179
*446 FILLER_12_182
*447 FILLER_12_185
*448 FILLER_12_188
*449 FILLER_12_191
*450 FILLER_12_194
*451 FILLER_12_197
*452 FILLER_12_200
*453 FILLER_12_203
*454 FILLER_12_206
*455 FILLER_12_209
*456 FILLER_12_212
*457 FILLER_12_215
*458 FILLER_12_218
*459 FILLER_12_221
*460 FILLER_12_224
*461 FILLER_12_227
*462 FILLER_12_230
*463 FILLER_12_3
*464 FILLER_12_57
*465 FILLER_12_79
*466 FILLER_12_82
*467 FILLER_12_85
*468 FILLER_12_88
*469 FILLER_12_91
*470 FILLER_13_150
*471 FILLER_13_153
*472 FILLER_13_156
*473 FILLER_13_159
*474 FILLER_13_190
*475 FILLER_13_193
*476 FILLER_13_196
*477 FILLER_13_199
*478 FILLER_13_202
*479 FILLER_13_205
*480 FILLER_13_208
*481 FILLER_13_211
*482 FILLER_13_214
*483 FILLER_13_217
*484 FILLER_13_220
*485 FILLER_13_223
*486 FILLER_13_225
*487 FILLER_13_228
*488 FILLER_13_231
*489 FILLER_13_3
*490 FILLER_13_49
*491 FILLER_13_52
*492 FILLER_13_55
*493 FILLER_13_6
*494 FILLER_13_88
*495 FILLER_14_132
*496 FILLER_14_135
*497 FILLER_14_138
*498 FILLER_14_157
*499 FILLER_14_182
*500 FILLER_14_185
*501 FILLER_14_188
*502 FILLER_14_191
*503 FILLER_14_194
*504 FILLER_14_197
*505 FILLER_14_200
*506 FILLER_14_203
*507 FILLER_14_206
*508 FILLER_14_209
*509 FILLER_14_212
*510 FILLER_14_215
*511 FILLER_14_218
*512 FILLER_14_221
*513 FILLER_14_224
*514 FILLER_14_227
*515 FILLER_14_230
*516 FILLER_14_29
*517 FILLER_14_3
*518 FILLER_14_52
*519 FILLER_14_55
*520 FILLER_14_6
*521 FILLER_15_128
*522 FILLER_15_158
*523 FILLER_15_166
*524 FILLER_15_174
*525 FILLER_15_177
*526 FILLER_15_200
*527 FILLER_15_203
*528 FILLER_15_206
*529 FILLER_15_209
*530 FILLER_15_212
*531 FILLER_15_215
*532 FILLER_15_218
*533 FILLER_15_221
*534 FILLER_15_225
*535 FILLER_15_228
*536 FILLER_15_231
*537 FILLER_15_37
*538 FILLER_15_40
*539 FILLER_15_43
*540 FILLER_15_46
*541 FILLER_15_78
*542 FILLER_16_101
*543 FILLER_16_110
*544 FILLER_16_134
*545 FILLER_16_141
*546 FILLER_16_185
*547 FILLER_16_188
*548 FILLER_16_191
*549 FILLER_16_194
*550 FILLER_16_197
*551 FILLER_16_200
*552 FILLER_16_203
*553 FILLER_16_206
*554 FILLER_16_209
*555 FILLER_16_212
*556 FILLER_16_215
*557 FILLER_16_218
*558 FILLER_16_221
*559 FILLER_16_224
*560 FILLER_16_227
*561 FILLER_16_23
*562 FILLER_16_230
*563 FILLER_16_26
*564 FILLER_16_3
*565 FILLER_16_37
*566 FILLER_16_6
*567 FILLER_16_72
*568 FILLER_16_81
*569 FILLER_16_98
*570 FILLER_17_110
*571 FILLER_17_121
*572 FILLER_17_124
*573 FILLER_17_127
*574 FILLER_17_166
*575 FILLER_17_193
*576 FILLER_17_196
*577 FILLER_17_199
*578 FILLER_17_202
*579 FILLER_17_205
*580 FILLER_17_208
*581 FILLER_17_211
*582 FILLER_17_214
*583 FILLER_17_217
*584 FILLER_17_220
*585 FILLER_17_223
*586 FILLER_17_225
*587 FILLER_17_228
*588 FILLER_17_231
*589 FILLER_17_3
*590 FILLER_17_30
*591 FILLER_17_54
*592 FILLER_17_70
*593 FILLER_17_93
*594 FILLER_18_139
*595 FILLER_18_141
*596 FILLER_18_171
*597 FILLER_18_174
*598 FILLER_18_177
*599 FILLER_18_180
*600 FILLER_18_183
*601 FILLER_18_186
*602 FILLER_18_189
*603 FILLER_18_192
*604 FILLER_18_195
*605 FILLER_18_197
*606 FILLER_18_200
*607 FILLER_18_203
*608 FILLER_18_206
*609 FILLER_18_209
*610 FILLER_18_212
*611 FILLER_18_215
*612 FILLER_18_218
*613 FILLER_18_221
*614 FILLER_18_224
*615 FILLER_18_227
*616 FILLER_18_230
*617 FILLER_18_29
*618 FILLER_18_3
*619 FILLER_18_6
*620 FILLER_18_88
*621 FILLER_19_118
*622 FILLER_19_121
*623 FILLER_19_124
*624 FILLER_19_133
*625 FILLER_19_136
*626 FILLER_19_160
*627 FILLER_19_163
*628 FILLER_19_166
*629 FILLER_19_201
*630 FILLER_19_204
*631 FILLER_19_207
*632 FILLER_19_210
*633 FILLER_19_213
*634 FILLER_19_217
*635 FILLER_19_220
*636 FILLER_19_223
*637 FILLER_19_225
*638 FILLER_19_228
*639 FILLER_19_23
*640 FILLER_19_231
*641 FILLER_19_3
*642 FILLER_19_62
*643 FILLER_19_92
*644 FILLER_1_148
*645 FILLER_1_166
*646 FILLER_1_169
*647 FILLER_1_186
*648 FILLER_1_189
*649 FILLER_1_206
*650 FILLER_1_229
*651 FILLER_1_232
*652 FILLER_1_3
*653 FILLER_1_65
*654 FILLER_20_127
*655 FILLER_20_138
*656 FILLER_20_178
*657 FILLER_20_231
*658 FILLER_20_3
*659 FILLER_21_166
*660 FILLER_21_202
*661 FILLER_21_3
*662 FILLER_21_33
*663 FILLER_21_57
*664 FILLER_22_113
*665 FILLER_22_124
*666 FILLER_22_127
*667 FILLER_22_130
*668 FILLER_22_133
*669 FILLER_22_136
*670 FILLER_22_139
*671 FILLER_22_165
*672 FILLER_22_193
*673 FILLER_22_205
*674 FILLER_22_208
*675 FILLER_22_225
*676 FILLER_22_228
*677 FILLER_22_231
*678 FILLER_22_27
*679 FILLER_22_37
*680 FILLER_22_40
*681 FILLER_22_57
*682 FILLER_22_60
*683 FILLER_22_83
*684 FILLER_22_85
*685 FILLER_22_88
*686 FILLER_22_91
*687 FILLER_22_94
*688 FILLER_2_139
*689 FILLER_2_157
*690 FILLER_2_160
*691 FILLER_2_163
*692 FILLER_2_166
*693 FILLER_2_169
*694 FILLER_2_172
*695 FILLER_2_175
*696 FILLER_2_178
*697 FILLER_2_181
*698 FILLER_2_184
*699 FILLER_2_187
*700 FILLER_2_190
*701 FILLER_2_193
*702 FILLER_2_197
*703 FILLER_2_200
*704 FILLER_2_203
*705 FILLER_2_206
*706 FILLER_2_209
*707 FILLER_2_212
*708 FILLER_2_215
*709 FILLER_2_29
*710 FILLER_2_3
*711 FILLER_2_62
*712 FILLER_2_85
*713 FILLER_3_106
*714 FILLER_3_113
*715 FILLER_3_154
*716 FILLER_3_157
*717 FILLER_3_160
*718 FILLER_3_163
*719 FILLER_3_166
*720 FILLER_3_169
*721 FILLER_3_172
*722 FILLER_3_175
*723 FILLER_3_178
*724 FILLER_3_181
*725 FILLER_3_184
*726 FILLER_3_187
*727 FILLER_3_190
*728 FILLER_3_193
*729 FILLER_3_196
*730 FILLER_3_199
*731 FILLER_3_202
*732 FILLER_3_205
*733 FILLER_3_208
*734 FILLER_3_211
*735 FILLER_3_214
*736 FILLER_3_217
*737 FILLER_3_220
*738 FILLER_3_223
*739 FILLER_3_225
*740 FILLER_3_228
*741 FILLER_3_231
*742 FILLER_3_3
*743 FILLER_3_33
*744 FILLER_3_57
*745 FILLER_4_162
*746 FILLER_4_165
*747 FILLER_4_168
*748 FILLER_4_171
*749 FILLER_4_174
*750 FILLER_4_177
*751 FILLER_4_180
*752 FILLER_4_183
*753 FILLER_4_186
*754 FILLER_4_189
*755 FILLER_4_192
*756 FILLER_4_195
*757 FILLER_4_197
*758 FILLER_4_200
*759 FILLER_4_203
*760 FILLER_4_206
*761 FILLER_4_209
*762 FILLER_4_212
*763 FILLER_4_215
*764 FILLER_4_218
*765 FILLER_4_221
*766 FILLER_4_224
*767 FILLER_4_227
*768 FILLER_4_230
*769 FILLER_4_3
*770 FILLER_4_90
*771 FILLER_5_103
*772 FILLER_5_106
*773 FILLER_5_109
*774 FILLER_5_113
*775 FILLER_5_153
*776 FILLER_5_156
*777 FILLER_5_159
*778 FILLER_5_162
*779 FILLER_5_165
*780 FILLER_5_169
*781 FILLER_5_172
*782 FILLER_5_175
*783 FILLER_5_178
*784 FILLER_5_181
*785 FILLER_5_184
*786 FILLER_5_187
*787 FILLER_5_190
*788 FILLER_5_193
*789 FILLER_5_196
*790 FILLER_5_199
*791 FILLER_5_202
*792 FILLER_5_205
*793 FILLER_5_208
*794 FILLER_5_211
*795 FILLER_5_214
*796 FILLER_5_217
*797 FILLER_5_220
*798 FILLER_5_223
*799 FILLER_5_225
*800 FILLER_5_228
*801 FILLER_5_231
*802 FILLER_5_29
*803 FILLER_5_3
*804 FILLER_5_57
*805 FILLER_6_144
*806 FILLER_6_147
*807 FILLER_6_150
*808 FILLER_6_153
*809 FILLER_6_156
*810 FILLER_6_159
*811 FILLER_6_162
*812 FILLER_6_165
*813 FILLER_6_168
*814 FILLER_6_171
*815 FILLER_6_174
*816 FILLER_6_177
*817 FILLER_6_180
*818 FILLER_6_183
*819 FILLER_6_186
*820 FILLER_6_189
*821 FILLER_6_192
*822 FILLER_6_195
*823 FILLER_6_197
*824 FILLER_6_200
*825 FILLER_6_203
*826 FILLER_6_206
*827 FILLER_6_209
*828 FILLER_6_212
*829 FILLER_6_215
*830 FILLER_6_218
*831 FILLER_6_221
*832 FILLER_6_224
*833 FILLER_6_227
*834 FILLER_6_230
*835 FILLER_6_3
*836 FILLER_6_6
*837 FILLER_6_74
*838 FILLER_6_83
*839 FILLER_6_95
*840 FILLER_7_109
*841 FILLER_7_131
*842 FILLER_7_154
*843 FILLER_7_157
*844 FILLER_7_160
*845 FILLER_7_163
*846 FILLER_7_166
*847 FILLER_7_169
*848 FILLER_7_172
*849 FILLER_7_175
*850 FILLER_7_178
*851 FILLER_7_181
*852 FILLER_7_184
*853 FILLER_7_187
*854 FILLER_7_190
*855 FILLER_7_193
*856 FILLER_7_196
*857 FILLER_7_199
*858 FILLER_7_202
*859 FILLER_7_205
*860 FILLER_7_208
*861 FILLER_7_211
*862 FILLER_7_214
*863 FILLER_7_217
*864 FILLER_7_220
*865 FILLER_7_223
*866 FILLER_7_225
*867 FILLER_7_228
*868 FILLER_7_231
*869 FILLER_7_64
*870 FILLER_7_86
*871 FILLER_8_127
*872 FILLER_8_132
*873 FILLER_8_135
*874 FILLER_8_138
*875 FILLER_8_149
*876 FILLER_8_152
*877 FILLER_8_155
*878 FILLER_8_158
*879 FILLER_8_161
*880 FILLER_8_164
*881 FILLER_8_167
*882 FILLER_8_170
*883 FILLER_8_173
*884 FILLER_8_176
*885 FILLER_8_179
*886 FILLER_8_182
*887 FILLER_8_185
*888 FILLER_8_188
*889 FILLER_8_191
*890 FILLER_8_194
*891 FILLER_8_197
*892 FILLER_8_200
*893 FILLER_8_203
*894 FILLER_8_206
*895 FILLER_8_209
*896 FILLER_8_212
*897 FILLER_8_215
*898 FILLER_8_218
*899 FILLER_8_221
*900 FILLER_8_224
*901 FILLER_8_227
*902 FILLER_8_230
*903 FILLER_8_29
*904 FILLER_8_3
*905 FILLER_8_52
*906 FILLER_8_6
*907 FILLER_8_76
*908 FILLER_8_88
*909 FILLER_8_98
*910 FILLER_9_111
*911 FILLER_9_113
*912 FILLER_9_135
*913 FILLER_9_138
*914 FILLER_9_141
*915 FILLER_9_144
*916 FILLER_9_147
*917 FILLER_9_150
*918 FILLER_9_153
*919 FILLER_9_156
*920 FILLER_9_159
*921 FILLER_9_162
*922 FILLER_9_165
*923 FILLER_9_169
*924 FILLER_9_172
*925 FILLER_9_175
*926 FILLER_9_178
*927 FILLER_9_181
*928 FILLER_9_184
*929 FILLER_9_187
*930 FILLER_9_190
*931 FILLER_9_193
*932 FILLER_9_196
*933 FILLER_9_199
*934 FILLER_9_202
*935 FILLER_9_205
*936 FILLER_9_208
*937 FILLER_9_211
*938 FILLER_9_214
*939 FILLER_9_217
*940 FILLER_9_220
*941 FILLER_9_223
*942 FILLER_9_225
*943 FILLER_9_228
*944 FILLER_9_231
*945 FILLER_9_27
*946 FILLER_9_50
*947 FILLER_9_57
*948 FILLER_9_67
*949 PHY_EDGE_ROW_0_Left_23
*950 PHY_EDGE_ROW_0_Right_0
*951 PHY_EDGE_ROW_10_Left_33
*952 PHY_EDGE_ROW_10_Right_10
*953 PHY_EDGE_ROW_11_Left_34
*954 PHY_EDGE_ROW_11_Right_11
*955 PHY_EDGE_ROW_12_Left_35
*956 PHY_EDGE_ROW_12_Right_12
*957 PHY_EDGE_ROW_13_Left_36
*958 PHY_EDGE_ROW_13_Right_13
*959 PHY_EDGE_ROW_14_Left_37
*960 PHY_EDGE_ROW_14_Right_14
*961 PHY_EDGE_ROW_15_Left_38
*962 PHY_EDGE_ROW_15_Right_15
*963 PHY_EDGE_ROW_16_Left_39
*964 PHY_EDGE_ROW_16_Right_16
*965 PHY_EDGE_ROW_17_Left_40
*966 PHY_EDGE_ROW_17_Right_17
*967 PHY_EDGE_ROW_18_Left_41
*968 PHY_EDGE_ROW_18_Right_18
*969 PHY_EDGE_ROW_19_Left_42
*970 PHY_EDGE_ROW_19_Right_19
*971 PHY_EDGE_ROW_1_Left_24
*972 PHY_EDGE_ROW_1_Right_1
*973 PHY_EDGE_ROW_20_Left_43
*974 PHY_EDGE_ROW_20_Right_20
*975 PHY_EDGE_ROW_21_Left_44
*976 PHY_EDGE_ROW_21_Right_21
*977 PHY_EDGE_ROW_22_Left_45
*978 PHY_EDGE_ROW_22_Right_22
*979 PHY_EDGE_ROW_2_Left_25
*980 PHY_EDGE_ROW_2_Right_2
*981 PHY_EDGE_ROW_3_Left_26
*982 PHY_EDGE_ROW_3_Right_3
*983 PHY_EDGE_ROW_4_Left_27
*984 PHY_EDGE_ROW_4_Right_4
*985 PHY_EDGE_ROW_5_Left_28
*986 PHY_EDGE_ROW_5_Right_5
*987 PHY_EDGE_ROW_6_Left_29
*988 PHY_EDGE_ROW_6_Right_6
*989 PHY_EDGE_ROW_7_Left_30
*990 PHY_EDGE_ROW_7_Right_7
*991 PHY_EDGE_ROW_8_Left_31
*992 PHY_EDGE_ROW_8_Right_8
*993 PHY_EDGE_ROW_9_Left_32
*994 PHY_EDGE_ROW_9_Right_9
*995 TAP_TAPCELL_ROW_0_46
*996 TAP_TAPCELL_ROW_0_47
*997 TAP_TAPCELL_ROW_0_48
*998 TAP_TAPCELL_ROW_0_49
*999 TAP_TAPCELL_ROW_0_50
*1000 TAP_TAPCELL_ROW_0_51
*1001 TAP_TAPCELL_ROW_0_52
*1002 TAP_TAPCELL_ROW_0_53
*1003 TAP_TAPCELL_ROW_10_90
*1004 TAP_TAPCELL_ROW_10_91
*1005 TAP_TAPCELL_ROW_10_92
*1006 TAP_TAPCELL_ROW_10_93
*1007 TAP_TAPCELL_ROW_11_94
*1008 TAP_TAPCELL_ROW_11_95
*1009 TAP_TAPCELL_ROW_11_96
*1010 TAP_TAPCELL_ROW_11_97
*1011 TAP_TAPCELL_ROW_12_100
*1012 TAP_TAPCELL_ROW_12_101
*1013 TAP_TAPCELL_ROW_12_98
*1014 TAP_TAPCELL_ROW_12_99
*1015 TAP_TAPCELL_ROW_13_102
*1016 TAP_TAPCELL_ROW_13_103
*1017 TAP_TAPCELL_ROW_13_104
*1018 TAP_TAPCELL_ROW_13_105
*1019 TAP_TAPCELL_ROW_14_106
*1020 TAP_TAPCELL_ROW_14_107
*1021 TAP_TAPCELL_ROW_14_108
*1022 TAP_TAPCELL_ROW_14_109
*1023 TAP_TAPCELL_ROW_15_110
*1024 TAP_TAPCELL_ROW_15_111
*1025 TAP_TAPCELL_ROW_15_112
*1026 TAP_TAPCELL_ROW_15_113
*1027 TAP_TAPCELL_ROW_16_114
*1028 TAP_TAPCELL_ROW_16_115
*1029 TAP_TAPCELL_ROW_16_116
*1030 TAP_TAPCELL_ROW_16_117
*1031 TAP_TAPCELL_ROW_17_118
*1032 TAP_TAPCELL_ROW_17_119
*1033 TAP_TAPCELL_ROW_17_120
*1034 TAP_TAPCELL_ROW_17_121
*1035 TAP_TAPCELL_ROW_18_122
*1036 TAP_TAPCELL_ROW_18_123
*1037 TAP_TAPCELL_ROW_18_124
*1038 TAP_TAPCELL_ROW_18_125
*1039 TAP_TAPCELL_ROW_19_126
*1040 TAP_TAPCELL_ROW_19_127
*1041 TAP_TAPCELL_ROW_19_128
*1042 TAP_TAPCELL_ROW_19_129
*1043 TAP_TAPCELL_ROW_1_54
*1044 TAP_TAPCELL_ROW_1_55
*1045 TAP_TAPCELL_ROW_1_56
*1046 TAP_TAPCELL_ROW_1_57
*1047 TAP_TAPCELL_ROW_20_130
*1048 TAP_TAPCELL_ROW_20_131
*1049 TAP_TAPCELL_ROW_20_132
*1050 TAP_TAPCELL_ROW_20_133
*1051 TAP_TAPCELL_ROW_21_134
*1052 TAP_TAPCELL_ROW_21_135
*1053 TAP_TAPCELL_ROW_21_136
*1054 TAP_TAPCELL_ROW_21_137
*1055 TAP_TAPCELL_ROW_22_138
*1056 TAP_TAPCELL_ROW_22_139
*1057 TAP_TAPCELL_ROW_22_140
*1058 TAP_TAPCELL_ROW_22_141
*1059 TAP_TAPCELL_ROW_22_142
*1060 TAP_TAPCELL_ROW_22_143
*1061 TAP_TAPCELL_ROW_22_144
*1062 TAP_TAPCELL_ROW_22_145
*1063 TAP_TAPCELL_ROW_2_58
*1064 TAP_TAPCELL_ROW_2_59
*1065 TAP_TAPCELL_ROW_2_60
*1066 TAP_TAPCELL_ROW_2_61
*1067 TAP_TAPCELL_ROW_3_62
*1068 TAP_TAPCELL_ROW_3_63
*1069 TAP_TAPCELL_ROW_3_64
*1070 TAP_TAPCELL_ROW_3_65
*1071 TAP_TAPCELL_ROW_4_66
*1072 TAP_TAPCELL_ROW_4_67
*1073 TAP_TAPCELL_ROW_4_68
*1074 TAP_TAPCELL_ROW_4_69
*1075 TAP_TAPCELL_ROW_5_70
*1076 TAP_TAPCELL_ROW_5_71
*1077 TAP_TAPCELL_ROW_5_72
*1078 TAP_TAPCELL_ROW_5_73
*1079 TAP_TAPCELL_ROW_6_74
*1080 TAP_TAPCELL_ROW_6_75
*1081 TAP_TAPCELL_ROW_6_76
*1082 TAP_TAPCELL_ROW_6_77
*1083 TAP_TAPCELL_ROW_7_78
*1084 TAP_TAPCELL_ROW_7_79
*1085 TAP_TAPCELL_ROW_7_80
*1086 TAP_TAPCELL_ROW_7_81
*1087 TAP_TAPCELL_ROW_8_82
*1088 TAP_TAPCELL_ROW_8_83
*1089 TAP_TAPCELL_ROW_8_84
*1090 TAP_TAPCELL_ROW_8_85
*1091 TAP_TAPCELL_ROW_9_86
*1092 TAP_TAPCELL_ROW_9_87
*1093 TAP_TAPCELL_ROW_9_88
*1094 TAP_TAPCELL_ROW_9_89
*1095 _096_
*1096 _097_
*1097 _098_
*1098 _099_
*1099 _100_
*1100 _101_
*1101 _102_
*1102 _103_
*1103 _104_
*1104 _105_
*1105 _106_
*1106 _107_
*1107 _108_
*1108 _109_
*1109 _110_
*1110 _111_
*1111 _112_
*1112 _113_
*1113 _114_
*1114 _115_
*1115 _116_
*1116 _117_
*1117 _118_
*1118 _119_
*1119 _120_
*1120 _121_
*1121 _122_
*1122 _123_
*1123 _124_
*1124 _125_
*1125 _126_
*1126 _127_
*1127 _128_
*1128 _129_
*1129 _130_
*1130 _131_
*1131 _132_
*1132 _133_
*1133 _134_
*1134 _135_
*1135 _136_
*1136 _137_
*1137 _138_
*1138 _139_
*1139 _140_
*1140 _141_
*1141 _142_
*1142 _143_
*1143 _144_
*1144 _145_
*1145 _146_
*1146 _147_
*1147 _148_
*1148 _149_
*1149 _150_
*1150 _151_
*1151 _152_
*1152 _153_
*1153 _154_
*1154 _155_
*1155 _156_
*1156 _157_
*1157 _158_
*1158 _159_
*1159 _160_
*1160 _161_
*1161 _162_
*1162 _163_
*1163 _164_
*1164 _165_
*1165 _166_
*1166 _167_
*1167 _168_
*1168 _169_
*1169 _170_
*1170 _171_
*1171 _172_
*1172 _173_
*1173 _174_
*1174 _175_
*1175 _176_
*1176 _177_
*1177 _178_
*1178 _179_
*1179 _180_
*1180 _181_
*1181 _182_
*1182 _183_
*1183 _184_
*1184 _185_
*1185 _186_
*1186 _187_
*1187 _188_
*1188 _189_
*1189 _190_
*1190 _191_
*1191 _192_
*1192 _193_
*1193 _194_
*1194 _195_
*1195 _196_
*1196 _197_
*1197 _198_
*1198 _199_
*1199 _200_
*1200 _201_
*1201 _202_
*1202 _203_
*1203 _204_
*1204 _205_
*1205 _206_
*1206 _207_
*1207 _208_
*1208 _209_
*1209 _210_
*1210 _211_
*1211 _212_
*1212 _213_
*1213 _214_
*1214 _215_
*1215 _216_
*1216 _217_
*1217 _218_
*1218 _219_
*1219 _220_
*1220 _221_
*1221 _222_
*1222 _223_
*1223 _224_
*1224 _225_
*1225 _226_
*1226 _227_
*1227 _228_
*1228 _229_
*1229 _230_
*1230 _231_
*1231 _232_
*1232 _233_
*1233 _234_
*1234 _235_
*1235 _236_
*1236 _237_
*1237 _238_
*1238 _239_
*1239 _240_
*1240 _241_
*1241 _242_
*1242 _243_
*1243 _244_
*1244 _245_
*1245 _246_
*1246 _247_
*1247 _248_
*1248 _249_
*1249 _250_
*1250 _251_
*1251 _252_
*1252 _253_
*1253 _254_
*1254 _255_
*1255 _256_
*1256 _257_
*1257 _258_
*1258 _259_
*1259 _260_
*1260 _261_
*1261 _262_
*1262 _263_
*1263 _264_
*1264 _265_
*1265 _266_
*1266 _267_
*1267 _268_
*1268 _269_
*1269 _270_
*1270 _271_
*1271 _272_
*1272 _273_
*1273 _274_
*1274 _275_
*1275 _276_
*1276 _277_
*1277 _278_
*1278 _279_
*1279 _280_
*1280 _281_
*1281 _282_
*1282 _283_
*1283 _284_
*1284 _285_
*1285 _286_
*1286 _287_
*1287 _288_
*1288 _289_
*1289 _290_
*1290 _291_
*1291 _292_
*1292 _293_
*1293 _294_
*1294 _295_
*1295 _296_
*1296 _297_
*1297 _298_
*1298 _299_
*1299 _300_
*1300 _301_
*1301 _302_
*1302 _303_
*1303 _304_
*1304 _305_
*1305 _306_
*1306 _307_
*1307 _308_
*1308 _309_
*1309 _310_
*1310 _311_
*1311 _312_
*1312 _313_
*1313 _314_
*1314 _315_
*1315 _316_
*1316 _317_
*1317 _318_
*1318 _319_
*1319 _320_
*1320 _321_
*1321 _322_
*1322 _323_
*1323 _324_
*1324 _325_
*1325 _326_
*1326 _327_
*1327 _328_
*1328 _329_
*1329 _330_
*1330 _331_
*1331 _332_
*1332 _333_
*1333 _334_
*1334 _335_
*1335 _336_
*1336 _337_
*1337 _338_
*1338 _339_
*1339 _340_
*1340 _341_
*1341 _342_
*1342 _343_
*1343 _344_
*1344 _345_
*1345 _346_
*1346 _347_
*1347 _348_
*1348 _349_
*1349 _350_
*1350 _351_
*1351 _352_
*1352 _353_
*1353 _354_
*1354 _355_
*1355 _356_
*1356 _357_
*1357 _358_
*1358 _359_
*1359 _360_
*1360 _361_
*1361 clk_div1_delay\.dly_clkbuf
*1362 clk_div1_delay\.gen_dlygen\[1\]\.dlygen
*1363 clk_div1_delay\.gen_dlygen\[2\]\.dlygen
*1364 clk_div1_delay\.gen_dlygen\[3\]\.dlygen
*1365 clk_div1_delay\.gen_dlygen\[4\]\.dlygen
*1366 clk_div1_delay\.gen_dlygen\[5\]\.dlygen
*1367 clk_div1_delay\.gen_dlygen\[6\]\.dlygen
*1368 clk_div1_delay\.gen_dlygen\[7\]\.dlygen
*1369 clk_div1_delay\.gen_dlygen\[8\]\.dlygen
*1370 fanout1
*1371 fanout2
*1372 fanout3
*1373 fanout4
*1374 fanout5
*1375 fanout6
*1376 fanout7
*1377 hold1
*1378 hold2
*1379 hold3
*1380 hold4
*1381 hold5
*1382 pclk_div_skewed_delay\.dly_clkbuf
*1383 pclk_div_skewed_delay\.gen_dlygen\[1\]\.dlygen
*1384 pclk_div_skewed_delay\.gen_dlygen\[2\]\.dlygen
*1385 pclk_div_skewed_delay\.gen_dlygen\[3\]\.dlygen
*1386 pclk_div_skewed_delay\.gen_dlygen\[4\]\.dlygen
*1387 pclk_div_skewed_delay\.gen_dlygen\[5\]\.dlygen
*1388 usb_clk_delayed\.dly_clkbuf
*1389 usb_clk_delayed\.gen_dlygen\[1\]\.dlygen
*1390 usb_clk_delayed\.gen_dlygen\[2\]\.dlygen
*1391 usb_clk_delayed\.gen_dlygen\[3\]\.dlygen
*1392 usb_clk_delayed\.gen_dlygen\[4\]\.dlygen
*1393 usb_clk_delayed\.gen_dlygen\[5\]\.dlygen
*1394 usb_clk_delayed\.gen_dlygen\[6\]\.dlygen
*1395 usb_clk_delayed\.gen_dlygen\[7\]\.dlygen
*1396 usb_clk_delayed\.gen_dlygen\[8\]\.dlygen
*1397 usb_clk_delayed\.gen_dlygen\[9\]\.dlygen
*1398 user_clk_delay\.dly_clkbuf
*1399 user_clk_delay\.gen_dlygen\[1\]\.dlygen

*PORTS
clk O
clk_mon O
clk_mon_sel[0] I
clk_mon_sel[1] I
clk_mon_sel[2] I
clk_mux1_out O
dll_clk I
dll_clk90 I
hkrst_n I
hsxo I
hsxo_en I
hsxo_en_tf O
hsxo_standby I
hsxo_standby_tf O
lsxo I
lsxo_en I
lsxo_en_tf O
lsxo_standby I
lsxo_standby_tf O
pclk O
por_n I
rcosc_16m I
rcosc_16m_en I
rcosc_16m_en_tf O
rcosc_500k I
rcosc_500k_en I
rcosc_500k_en_tf O
rst_n O
sel_clkdiv0[0] I
sel_clkdiv0[1] I
sel_clkdiv0[2] I
sel_clkdiv1[0] I
sel_clkdiv1[1] I
sel_clkdiv1[2] I
sel_clkdiv2[0] I
sel_clkdiv2[1] I
sel_clkdiv2[2] I
sel_mux0 I
sel_mux1 I
sel_mux2 I
sel_mux3 I
sel_mux4 I
sel_mux5 I
usb_clk O
user_clk O
user_dly_sel[0] I
user_dly_sel[1] I
xclk I
xrst_n I

*D_NET *3 0.00170563
*CONN
*P clk O
*I *1361:X O *D sky130_fd_sc_hd__clkbuf_8
*CAP
1 clk 0.000779219
2 *1361:X 0.000779219
3 clk *1367:A 0
4 clk *1368:A 0
5 clk *1369:A 0.000147193
6 clk *1384:A 0
*RES
1 *1361:X clk 16.5 
*END

*D_NET *4 0.00168436
*CONN
*P clk_mon O
*I *1101:B I *D sky130_fd_sc_hd__xor2_2
*I *1246:Q O *D sky130_fd_sc_hd__dfrtp_4
*CAP
1 clk_mon 0.000274951
2 *1101:B 8.34925e-05
3 *1246:Q 0.000344197
4 *4:12 0.000702641
5 clk_mon rst_n 0
6 clk_mon *1101:A 2.92496e-05
7 *1101:B *1101:A 8.65905e-05
8 *4:12 rst_n 0
9 *4:12 *1101:A 4.66108e-05
10 *4:12 *30:169 0.000116629
*RES
1 *1246:Q *4:12 11.45 
2 *4:12 *1101:B 1.4475 
3 *4:12 clk_mon 6.71 
*END

*D_NET *5 0.0105039
*CONN
*P clk_mon_sel[0] I
*I *1169:B I *D sky130_fd_sc_hd__and2b_2
*I *1168:B I *D sky130_fd_sc_hd__nor2_2
*I *1167:B I *D sky130_fd_sc_hd__and2b_2
*I *1166:B I *D sky130_fd_sc_hd__nor2_2
*CAP
1 clk_mon_sel[0] 0.00201208
2 *1169:B 0.000136984
3 *1168:B 0.000138124
4 *1167:B 0
5 *1166:B 0.000423819
6 *5:47 0.000481913
7 *5:19 0.000651649
8 *5:11 0.00244671
9 *1166:B *1157:B 0
10 *1166:B *1158:B2 3.00381e-05
11 *1166:B *1166:A 9.53428e-06
12 *1166:B *1257:D 0.000122331
13 *1166:B *27:36 4.41964e-05
14 *1166:B *189:14 0
15 *1166:B *191:6 6.90876e-05
16 *1166:B *242:10 0.000120655
17 *1166:B *324:73 0.000366407
18 *1166:B *325:39 0
19 *1168:B *24:252 0
20 *1168:B *324:34 8.08439e-05
21 *1168:B *324:41 4.58406e-05
22 *1169:B *1261:D 1.7386e-05
23 *1169:B *172:14 0.0001249
24 *5:11 *1126:B2 1.96981e-05
25 *5:11 *1193:A_N 0
26 *5:11 *1194:A 0.000200536
27 *5:11 *1194:B 0
28 *5:11 *1203:A 9.53428e-06
29 *5:11 *1215:A2 4.64378e-05
30 *5:11 *1215:B2 0.000221695
31 *5:11 *1217:A_N 2.87867e-05