*SPEF "ieee 1481-1999"
*DESIGN "dll"
*DATE "23:24:27 Monday June 16, 2025"
*VENDOR "The OpenROAD Project"
*PROGRAM "OpenROAD"
*VERSION "edf00dff99f6c40d67a30c0e22a8191c5d2ed9d6"
*DESIGN_FLOW "NAME_SCOPE LOCAL" "PIN_CAP NONE"
*DIVIDER /
*DELIMITER :
*BUS_DELIMITER []
*T_UNIT 1 NS
*C_UNIT 1 PF
*R_UNIT 1 OHM
*L_UNIT 1 HENRY

*NAME_MAP
*3 clockp[0]
*4 clockp[1]
*5 dco
*6 div[0]
*7 div[1]
*8 div[2]
*9 div[3]
*10 div[4]
*11 div[5]
*12 div[6]
*13 div[7]
*14 enable
*15 ext_trim[0]
*16 ext_trim[10]
*17 ext_trim[11]
*18 ext_trim[12]
*19 ext_trim[13]
*20 ext_trim[14]
*21 ext_trim[15]
*22 ext_trim[16]
*23 ext_trim[17]
*24 ext_trim[18]
*25 ext_trim[19]
*26 ext_trim[1]
*27 ext_trim[20]
*28 ext_trim[21]
*29 ext_trim[22]
*30 ext_trim[23]
*31 ext_trim[24]
*32 ext_trim[25]
*33 ext_trim[2]
*34 ext_trim[3]
*35 ext_trim[4]
*36 ext_trim[5]
*37 ext_trim[6]
*38 ext_trim[7]
*39 ext_trim[8]
*40 ext_trim[9]
*41 osc
*42 resetb
*43 _000_
*44 _001_
*45 _002_
*46 _003_
*47 _004_
*48 _005_
*49 _006_
*50 _007_
*51 _008_
*52 _009_
*53 _010_
*54 _011_
*55 _012_
*56 _013_
*57 _014_
*58 _015_
*59 _016_
*60 _017_
*61 _018_
*62 _019_
*63 _020_
*64 _021_
*65 _022_
*66 _023_
*67 _024_
*68 _025_
*69 _026_
*70 _027_
*71 _028_
*72 _029_
*73 _030_
*74 _031_
*75 _032_
*76 _033_
*77 _034_
*78 _035_
*79 _036_
*80 _037_
*81 _038_
*82 _039_
*83 _040_
*84 _041_
*85 _042_
*86 _043_
*87 _044_
*88 _045_
*89 _046_
*90 _047_
*91 _048_
*92 _049_
*93 _050_
*94 _051_
*95 _052_
*96 _053_
*97 _054_
*98 _055_
*99 _056_
*100 _057_
*101 _058_
*102 _059_
*103 _060_
*104 _061_
*105 _062_
*106 _063_
*107 _064_
*108 _065_
*109 _066_
*110 _067_
*111 _068_
*112 _069_
*113 _070_
*114 _071_
*115 _072_
*116 _073_
*117 _074_
*118 _075_
*119 _076_
*120 _077_
*121 _078_
*122 _079_
*123 _080_
*124 _081_
*125 _082_
*126 _083_
*127 _084_
*128 _085_
*129 _086_
*130 _087_
*131 _088_
*132 _089_
*133 _090_
*134 _091_
*135 _092_
*136 _093_
*137 _094_
*138 _095_
*139 _096_
*140 _097_
*141 _098_
*142 _099_
*143 _100_
*144 _101_
*145 _102_
*146 _103_
*147 _104_
*148 _105_
*149 _106_
*150 _107_
*151 _108_
*152 _109_
*153 _110_
*154 _111_
*155 _112_
*156 _113_
*157 _114_
*158 _115_
*159 _116_
*160 _117_
*161 _118_
*162 _119_
*163 _120_
*164 _121_
*165 _122_
*166 _123_
*167 _124_
*168 _125_
*169 _126_
*170 _127_
*171 _128_
*172 _129_
*173 _130_
*174 _131_
*175 _132_
*176 _133_
*177 _134_
*178 _135_
*179 _136_
*180 _137_
*181 _138_
*182 _139_
*183 _140_
*184 _141_
*185 _142_
*186 _143_
*187 _144_
*188 _145_
*189 _146_
*190 _147_
*191 _148_
*192 _149_
*193 _150_
*194 _151_
*195 _152_
*196 _153_
*197 _154_
*198 _155_
*199 _156_
*200 _157_
*201 _158_
*202 _159_
*203 _160_
*204 _161_
*205 _162_
*206 _163_
*207 _164_
*208 _165_
*209 _166_
*210 _167_
*211 _168_
*212 _169_
*213 _170_
*214 _171_
*215 _172_
*216 _173_
*217 _174_
*218 _175_
*219 _176_
*220 _177_
*221 _178_
*222 _179_
*223 _180_
*224 _181_
*225 _182_
*226 _183_
*227 _184_
*228 _185_
*229 _186_
*230 _187_
*231 _188_
*232 _189_
*233 _190_
*234 _191_
*235 _192_
*236 _193_
*237 _194_
*238 _195_
*239 _196_
*240 _197_
*241 _198_
*242 _199_
*243 _200_
*244 _201_
*245 _202_
*246 _203_
*247 _204_
*248 _205_
*249 _206_
*250 _207_
*251 _208_
*252 _209_
*253 _210_
*254 _211_
*255 _212_
*256 _213_
*257 _214_
*258 _215_
*259 _216_
*260 _217_
*261 _218_
*262 _219_
*263 _220_
*264 _221_
*265 _222_
*266 _223_
*267 _224_
*268 _225_
*269 _226_
*270 _227_
*271 _228_
*272 _229_
*273 _230_
*274 _231_
*275 _232_
*276 _233_
*277 _234_
*278 _235_
*279 _236_
*280 _237_
*281 _238_
*282 _239_
*283 _240_
*284 _241_
*285 _242_
*286 _243_
*287 _244_
*288 _245_
*289 _246_
*290 _247_
*291 _248_
*292 _249_
*293 _250_
*294 _251_
*295 _252_
*296 _253_
*297 _254_
*298 _255_
*299 _256_
*300 _257_
*301 _258_
*302 _259_
*303 _260_
*304 _261_
*305 _262_
*306 _263_
*307 _264_
*308 _265_
*309 _266_
*310 _267_
*311 _268_
*312 _269_
*313 _270_
*314 _271_
*315 _272_
*316 _273_
*317 _274_
*318 _275_
*319 _276_
*320 _277_
*321 _278_
*322 _279_
*323 _280_
*324 _281_
*325 _282_
*326 _283_
*327 _284_
*328 _285_
*329 _286_
*330 _287_
*331 _288_
*332 _289_
*333 _290_
*334 _291_
*335 _292_
*336 _293_
*337 _294_
*338 _295_
*339 _296_
*340 _297_
*341 _298_
*342 _299_
*343 _300_
*344 _301_
*345 _302_
*346 _303_
*347 _304_
*348 _305_
*349 _306_
*350 _307_
*351 _308_
*352 _309_
*353 _310_
*354 _311_
*355 _312_
*356 _313_
*357 _314_
*358 _315_
*359 _316_
*360 _317_
*361 _318_
*362 _319_
*363 _320_
*364 _321_
*365 _322_
*366 _323_
*367 _324_
*368 _325_
*369 _326_
*370 _327_
*371 _328_
*372 _329_
*373 _330_
*374 _331_
*375 _332_
*376 _333_
*377 _334_
*378 _335_
*379 _336_
*380 _337_
*381 _338_
*382 _339_
*383 _340_
*384 _341_
*385 _342_
*386 _343_
*387 _344_
*388 _345_
*389 _346_
*390 _347_
*391 _348_
*392 _349_
*393 _350_
*394 _351_
*395 _352_
*396 _353_
*397 _354_
*398 _355_
*399 _356_
*400 _357_
*401 _358_
*402 _359_
*403 _360_
*404 _361_
*405 _362_
*406 clockp_buffer_in\[0\]
*407 clockp_buffer_in\[1\]
*408 dll_control\.accum\[0\]
*409 dll_control\.accum\[1\]
*410 dll_control\.accum\[2\]
*411 dll_control\.accum\[3\]
*412 dll_control\.accum\[4\]
*413 dll_control\.accum\[5\]
*414 dll_control\.accum\[6\]
*415 dll_control\.accum\[7\]
*416 dll_control\.accum\[8\]
*417 dll_control\.count0\[0\]
*418 dll_control\.count0\[1\]
*419 dll_control\.count0\[2\]
*420 dll_control\.count0\[3\]
*421 dll_control\.count0\[4\]
*422 dll_control\.count0\[5\]
*423 dll_control\.count1\[0\]
*424 dll_control\.count1\[1\]
*425 dll_control\.count1\[2\]
*426 dll_control\.count1\[3\]
*427 dll_control\.count1\[4\]
*428 dll_control\.count1\[5\]
*429 dll_control\.count2\[0\]
*430 dll_control\.count2\[1\]
*431 dll_control\.count2\[2\]
*432 dll_control\.count2\[3\]
*433 dll_control\.count2\[4\]
*434 dll_control\.count2\[5\]
*435 dll_control\.count3\[0\]
*436 dll_control\.count3\[1\]
*437 dll_control\.count3\[2\]
*438 dll_control\.count3\[3\]
*439 dll_control\.count3\[4\]
*440 dll_control\.count3\[5\]
*441 dll_control\.count4\[0\]
*442 dll_control\.count4\[1\]
*443 dll_control\.count4\[2\]
*444 dll_control\.count4\[3\]
*445 dll_control\.count4\[4\]
*446 dll_control\.count4\[5\]
*447 dll_control\.count5\[0\]
*448 dll_control\.count5\[1\]
*449 dll_control\.count5\[2\]
*450 dll_control\.count5\[3\]
*451 dll_control\.count5\[4\]
*452 dll_control\.count5\[5\]
*453 dll_control\.count6\[0\]
*454 dll_control\.count6\[1\]
*455 dll_control\.count6\[2\]
*456 dll_control\.count6\[3\]
*457 dll_control\.count6\[4\]
*458 dll_control\.count6\[5\]
*459 dll_control\.count7\[0\]
*460 dll_control\.count7\[1\]
*461 dll_control\.count7\[2\]
*462 dll_control\.count7\[3\]
*463 dll_control\.count7\[4\]
*464 dll_control\.count7\[5\]
*465 dll_control\.count8\[0\]
*466 dll_control\.count8\[1\]
*467 dll_control\.count8\[2\]
*468 dll_control\.count8\[3\]
*469 dll_control\.count8\[4\]
*470 dll_control\.count8\[5\]
*471 dll_control\.oscbuf\[0\]
*472 dll_control\.oscbuf\[1\]
*473 dll_control\.oscbuf\[2\]
*474 dll_control\.tint\[0\]
*475 dll_control\.tint\[1\]
*476 dll_control\.tint\[2\]
*477 dll_control\.tint\[3\]
*478 dll_control\.tint\[4\]
*479 dll_control\.tval\[0\]
*480 dll_control\.tval\[1\]
*481 dll_control\.tval\[2\]
*482 ireset
*483 itrim\[0\]
*484 itrim\[10\]
*485 itrim\[11\]
*486 itrim\[12\]
*487 itrim\[13\]
*488 itrim\[14\]
*489 itrim\[15\]
*490 itrim\[16\]
*491 itrim\[17\]
*492 itrim\[18\]
*493 itrim\[19\]
*494 itrim\[1\]
*495 itrim\[20\]
*496 itrim\[21\]
*497 itrim\[22\]
*498 itrim\[23\]
*499 itrim\[24\]
*500 itrim\[25\]
*501 itrim\[2\]
*502 itrim\[3\]
*503 itrim\[4\]
*504 itrim\[5\]
*505 itrim\[6\]
*506 itrim\[7\]
*507 itrim\[8\]
*508 itrim\[9\]
*509 net1
*510 net10
*511 net101
*512 net102
*513 net103
*514 net105
*515 net106
*516 net107
*517 net108
*518 net109
*519 net11
*520 net110
*521 net111
*522 net12
*523 net13
*524 net14
*525 net15
*526 net16
*527 net17
*528 net18
*529 net19
*530 net2
*531 net20
*532 net21
*533 net22
*534 net23
*535 net24
*536 net25
*537 net26
*538 net27
*539 net28
*540 net29
*541 net3
*542 net30
*543 net31
*544 net32
*545 net33
*546 net34
*547 net35
*548 net36
*549 net37
*550 net38
*551 net39
*552 net4
*553 net40
*554 net41
*555 net42
*556 net43
*557 net44
*558 net45
*559 net46
*560 net47
*561 net48
*562 net49
*563 net5
*564 net50
*565 net51
*566 net52
*567 net53
*568 net54
*569 net55
*570 net56
*571 net57
*572 net58
*573 net59
*574 net6
*575 net60
*576 net61
*577 net62
*578 net63
*579 net64
*580 net65
*581 net66
*582 net67
*583 net68
*584 net69
*585 net7
*586 net70
*587 net71
*588 net73
*589 net74
*590 net75
*591 net76
*592 net77
*593 net78
*594 net79
*595 net8
*596 net80
*597 net81
*598 net82
*599 net83
*600 net85
*601 net86
*602 net87
*603 net88
*604 net89
*605 net9
*606 net90
*607 net91
*608 net92
*609 net93
*610 net95
*611 net98
*612 net99
*613 ringosc\.c\[0\]
*614 ringosc\.c\[1\]
*615 ringosc\.dstage\[0\]\.id\.d0
*616 ringosc\.dstage\[0\]\.id\.d1
*617 ringosc\.dstage\[0\]\.id\.d2
*618 ringosc\.dstage\[0\]\.id\.in
*619 ringosc\.dstage\[0\]\.id\.out
*620 ringosc\.dstage\[0\]\.id\.ts
*621 ringosc\.dstage\[10\]\.id\.d0
*622 ringosc\.dstage\[10\]\.id\.d1
*623 ringosc\.dstage\[10\]\.id\.d2
*624 ringosc\.dstage\[10\]\.id\.in
*625 ringosc\.dstage\[10\]\.id\.out
*626 ringosc\.dstage\[10\]\.id\.ts
*627 ringosc\.dstage\[11\]\.id\.d0
*628 ringosc\.dstage\[11\]\.id\.d1
*629 ringosc\.dstage\[11\]\.id\.d2
*630 ringosc\.dstage\[11\]\.id\.out
*631 ringosc\.dstage\[11\]\.id\.ts
*632 ringosc\.dstage\[1\]\.id\.d0
*633 ringosc\.dstage\[1\]\.id\.d1
*634 ringosc\.dstage\[1\]\.id\.d2
*635 ringosc\.dstage\[1\]\.id\.out
*636 ringosc\.dstage\[1\]\.id\.ts
*637 ringosc\.dstage\[2\]\.id\.d0
*638 ringosc\.dstage\[2\]\.id\.d1
*639 ringosc\.dstage\[2\]\.id\.d2
*640 ringosc\.dstage\[2\]\.id\.out
*641 ringosc\.dstage\[2\]\.id\.ts
*642 ringosc\.dstage\[3\]\.id\.d0
*643 ringosc\.dstage\[3\]\.id\.d1
*644 ringosc\.dstage\[3\]\.id\.d2
*645 ringosc\.dstage\[3\]\.id\.out
*646 ringosc\.dstage\[3\]\.id\.ts
*647 ringosc\.dstage\[4\]\.id\.d0
*648 ringosc\.dstage\[4\]\.id\.d1
*649 ringosc\.dstage\[4\]\.id\.d2
*650 ringosc\.dstage\[4\]\.id\.out
*651 ringosc\.dstage\[4\]\.id\.ts
*652 ringosc\.dstage\[5\]\.id\.d0
*653 ringosc\.dstage\[5\]\.id\.d1
*654 ringosc\.dstage\[5\]\.id\.d2
*655 ringosc\.dstage\[5\]\.id\.out
*656 ringosc\.dstage\[5\]\.id\.ts
*657 ringosc\.dstage\[6\]\.id\.d0
*658 ringosc\.dstage\[6\]\.id\.d1
*659 ringosc\.dstage\[6\]\.id\.d2
*660 ringosc\.dstage\[6\]\.id\.out
*661 ringosc\.dstage\[6\]\.id\.ts
*662 ringosc\.dstage\[7\]\.id\.d0
*663 ringosc\.dstage\[7\]\.id\.d1
*664 ringosc\.dstage\[7\]\.id\.d2
*665 ringosc\.dstage\[7\]\.id\.out
*666 ringosc\.dstage\[7\]\.id\.ts
*667 ringosc\.dstage\[8\]\.id\.d0
*668 ringosc\.dstage\[8\]\.id\.d1
*669 ringosc\.dstage\[8\]\.id\.d2
*670 ringosc\.dstage\[8\]\.id\.out
*671 ringosc\.dstage\[8\]\.id\.ts
*672 ringosc\.dstage\[9\]\.id\.d0
*673 ringosc\.dstage\[9\]\.id\.d1
*674 ringosc\.dstage\[9\]\.id\.d2
*675 ringosc\.dstage\[9\]\.id\.ts
*676 ringosc\.iss\.ctrl0
*677 ringosc\.iss\.d0
*678 ringosc\.iss\.d1
*679 ringosc\.iss\.d2
*680 ringosc\.iss\.one
*681 ANTENNA_input10_A
*682 ANTENNA_input11_A
*683 ANTENNA_input12_A
*684 ANTENNA_input13_A
*685 ANTENNA_input14_A
*686 ANTENNA_input15_A
*687 ANTENNA_input16_A
*688 ANTENNA_input17_A
*689 ANTENNA_input18_A
*690 ANTENNA_input19_A
*691 ANTENNA_input1_A
*692 ANTENNA_input20_A
*693 ANTENNA_input21_A
*694 ANTENNA_input22_A
*695 ANTENNA_input23_A
*696 ANTENNA_input24_A
*697 ANTENNA_input25_A
*698 ANTENNA_input26_A
*699 ANTENNA_input27_A
*700 ANTENNA_input28_A
*701 ANTENNA_input29_A
*702 ANTENNA_input2_A
*703 ANTENNA_input30_A
*704 ANTENNA_input31_A
*705 ANTENNA_input32_A
*706 ANTENNA_input33_A
*707 ANTENNA_input34_A
*708 ANTENNA_input35_A
*709 ANTENNA_input36_A
*710 ANTENNA_input37_A
*711 ANTENNA_input38_A
*712 ANTENNA_input3_A
*713 ANTENNA_input4_A
*714 ANTENNA_input5_A
*715 ANTENNA_input6_A
*716 ANTENNA_input7_A
*717 ANTENNA_input8_A
*718 ANTENNA_input9_A
*719 FILLER_0_109
*720 FILLER_0_113
*721 FILLER_0_117
*722 FILLER_0_126
*723 FILLER_0_139
*724 FILLER_0_14
*725 FILLER_0_141
*726 FILLER_0_152
*727 FILLER_0_163
*728 FILLER_0_166
*729 FILLER_0_169
*730 FILLER_0_176
*731 FILLER_0_181
*732 FILLER_0_188
*733 FILLER_0_19
*734 FILLER_0_195
*735 FILLER_0_197
*736 FILLER_0_201
*737 FILLER_0_223
*738 FILLER_0_225
*739 FILLER_0_229
*740 FILLER_0_251
*741 FILLER_0_253
*742 FILLER_0_26
*743 FILLER_0_29
*744 FILLER_0_3
*745 FILLER_0_35
*746 FILLER_0_40
*747 FILLER_0_47
*748 FILLER_0_55
*749 FILLER_0_57
*750 FILLER_0_61
*751 FILLER_0_7
*752 FILLER_0_74
*753 FILLER_0_83
*754 FILLER_0_85
*755 FILLER_0_88
*756 FILLER_10_102
*757 FILLER_10_11
*758 FILLER_10_126
*759 FILLER_10_138
*760 FILLER_10_141
*761 FILLER_10_162
*762 FILLER_10_184
*763 FILLER_10_19
*764 FILLER_10_191
*765 FILLER_10_195
*766 FILLER_10_197
*767 FILLER_10_204
*768 FILLER_10_226
*769 FILLER_10_237
*770 FILLER_10_248
*771 FILLER_10_251
*772 FILLER_10_253
*773 FILLER_10_27
*774 FILLER_10_29
*775 FILLER_10_3
*776 FILLER_10_40
*777 FILLER_10_48
*778 FILLER_10_56
*779 FILLER_10_64
*780 FILLER_10_73
*781 FILLER_10_76
*782 FILLER_10_83
*783 FILLER_10_85
*784 FILLER_10_97
*785 FILLER_11_111
*786 FILLER_11_113
*787 FILLER_11_124
*788 FILLER_11_132
*789 FILLER_11_139
*790 FILLER_11_142
*791 FILLER_11_148
*792 FILLER_11_155
*793 FILLER_11_162
*794 FILLER_11_167
*795 FILLER_11_169
*796 FILLER_11_172
*797 FILLER_11_194
*798 FILLER_11_216
*799 FILLER_11_223
*800 FILLER_11_225
*801 FILLER_11_228
*802 FILLER_11_24
*803 FILLER_11_250
*804 FILLER_11_254
*805 FILLER_11_3
*806 FILLER_11_31
*807 FILLER_11_38
*808 FILLER_11_42
*809 FILLER_11_47
*810 FILLER_11_55
*811 FILLER_11_57
*812 FILLER_11_62
*813 FILLER_11_65
*814 FILLER_11_72
*815 FILLER_11_79
*816 FILLER_11_84
*817 FILLER_11_87
*818 FILLER_12_100
*819 FILLER_12_112
*820 FILLER_12_12
*821 FILLER_12_122
*822 FILLER_12_125
*823 FILLER_12_128
*824 FILLER_12_134
*825 FILLER_12_139
*826 FILLER_12_141
*827 FILLER_12_162
*828 FILLER_12_165
*829 FILLER_12_171
*830 FILLER_12_177
*831 FILLER_12_188
*832 FILLER_12_195
*833 FILLER_12_197
*834 FILLER_12_207
*835 FILLER_12_210
*836 FILLER_12_220
*837 FILLER_12_224
*838 FILLER_12_23
*839 FILLER_12_235
*840 FILLER_12_246
*841 FILLER_12_251
*842 FILLER_12_253
*843 FILLER_12_27
*844 FILLER_12_29
*845 FILLER_12_3
*846 FILLER_12_53
*847 FILLER_12_56
*848 FILLER_12_62
*849 FILLER_12_7
*850 FILLER_12_71
*851 FILLER_12_74
*852 FILLER_12_83
*853 FILLER_12_85
*854 FILLER_12_94
*855 FILLER_13_107
*856 FILLER_13_110
*857 FILLER_13_113
*858 FILLER_13_12
*859 FILLER_13_124
*860 FILLER_13_133
*861 FILLER_13_142
*862 FILLER_13_151
*863 FILLER_13_158
*864 FILLER_13_164
*865 FILLER_13_167
*866 FILLER_13_169
*867 FILLER_13_192
*868 FILLER_13_196
*869 FILLER_13_207
*870 FILLER_13_214
*871 FILLER_13_221
*872 FILLER_13_225
*873 FILLER_13_23
*874 FILLER_13_247
*875 FILLER_13_254
*876 FILLER_13_28
*877 FILLER_13_3
*878 FILLER_13_32
*879 FILLER_13_35
*880 FILLER_13_38
*881 FILLER_13_41
*882 FILLER_13_44
*883 FILLER_13_47
*884 FILLER_13_55
*885 FILLER_13_57
*886 FILLER_13_6
*887 FILLER_13_67
*888 FILLER_13_90
*889 FILLER_13_93
*890 FILLER_13_97
*891 FILLER_14_104
*892 FILLER_14_115
*893 FILLER_14_127
*894 FILLER_14_138
*895 FILLER_14_141
*896 FILLER_14_163
*897 FILLER_14_185
*898 FILLER_14_192
*899 FILLER_14_195
*900 FILLER_14_197
*901 FILLER_14_218
*902 FILLER_14_224
*903 FILLER_14_229
*904 FILLER_14_236
*905 FILLER_14_244
*906 FILLER_14_247
*907 FILLER_14_25
*908 FILLER_14_251
*909 FILLER_14_253
*910 FILLER_14_29
*911 FILLER_14_3
*912 FILLER_14_32
*913 FILLER_14_35
*914 FILLER_14_43
*915 FILLER_14_53
*916 FILLER_14_61
*917 FILLER_14_72
*918 FILLER_14_75
*919 FILLER_14_82
*920 FILLER_14_85
*921 FILLER_14_88
*922 FILLER_14_96
*923 FILLER_15_111
*924 FILLER_15_113
*925 FILLER_15_127
*926 FILLER_15_13
*927 FILLER_15_136
*928 FILLER_15_141
*929 FILLER_15_151
*930 FILLER_15_160
*931 FILLER_15_165
*932 FILLER_15_169
*933 FILLER_15_179
*934 FILLER_15_190
*935 FILLER_15_197
*936 FILLER_15_200
*937 FILLER_15_222
*938 FILLER_15_225
*939 FILLER_15_231
*940 FILLER_15_24
*941 FILLER_15_253
*942 FILLER_15_27
*943 FILLER_15_3
*944 FILLER_15_30
*945 FILLER_15_33
*946 FILLER_15_55
*947 FILLER_15_57
*948 FILLER_15_6
*949 FILLER_15_61
*950 FILLER_15_69
*951 FILLER_15_72
*952 FILLER_15_75
*953 FILLER_15_78
*954 FILLER_15_81
*955 FILLER_15_84
*956 FILLER_15_90
*957 FILLER_15_96
*958 FILLER_15_99
*959 FILLER_16_106
*960 FILLER_16_109
*961 FILLER_16_129
*962 FILLER_16_136
*963 FILLER_16_139
*964 FILLER_16_141
*965 FILLER_16_144
*966 FILLER_16_152
*967 FILLER_16_163
*968 FILLER_16_168
*969 FILLER_16_171
*970 FILLER_16_174
*971 FILLER_16_177
*972 FILLER_16_183
*973 FILLER_16_190
*974 FILLER_16_193
*975 FILLER_16_197
*976 FILLER_16_200
*977 FILLER_16_203
*978 FILLER_16_206
*979 FILLER_16_217
*980 FILLER_16_221
*981 FILLER_16_243
*982 FILLER_16_251
*983 FILLER_16_253
*984 FILLER_16_26
*985 FILLER_16_29
*986 FILLER_16_3
*987 FILLER_16_32
*988 FILLER_16_37
*989 FILLER_16_44
*990 FILLER_16_53
*991 FILLER_16_56
*992 FILLER_16_59
*993 FILLER_16_83
*994 FILLER_16_85
*995 FILLER_17_100
*996 FILLER_17_111
*997 FILLER_17_113
*998 FILLER_17_125
*999 FILLER_17_130
*1000 FILLER_17_148
*1001 FILLER_17_159
*1002 FILLER_17_167
*1003 FILLER_17_169
*1004 FILLER_17_172
*1005 FILLER_17_193
*1006 FILLER_17_196
*1007 FILLER_17_199
*1008 FILLER_17_202
*1009 FILLER_17_205
*1010 FILLER_17_208
*1011 FILLER_17_216
*1012 FILLER_17_219
*1013 FILLER_17_223
*1014 FILLER_17_225
*1015 FILLER_17_235
*1016 FILLER_17_247
*1017 FILLER_17_252
*1018 FILLER_17_26
*1019 FILLER_17_29
*1020 FILLER_17_3
*1021 FILLER_17_55
*1022 FILLER_17_57
*1023 FILLER_17_64
*1024 FILLER_17_67
*1025 FILLER_17_75
*1026 FILLER_17_81
*1027 FILLER_17_84
*1028 FILLER_17_97
*1029 FILLER_18_100
*1030 FILLER_18_119
*1031 FILLER_18_13
*1032 FILLER_18_130
*1033 FILLER_18_137
*1034 FILLER_18_141
*1035 FILLER_18_144
*1036 FILLER_18_147
*1037 FILLER_18_150
*1038 FILLER_18_156
*1039 FILLER_18_164
*1040 FILLER_18_167
*1041 FILLER_18_192
*1042 FILLER_18_195
*1043 FILLER_18_197
*1044 FILLER_18_200
*1045 FILLER_18_208
*1046 FILLER_18_218
*1047 FILLER_18_221
*1048 FILLER_18_231
*1049 FILLER_18_236
*1050 FILLER_18_24
*1051 FILLER_18_245
*1052 FILLER_18_251
*1053 FILLER_18_253
*1054 FILLER_18_27
*1055 FILLER_18_29
*1056 FILLER_18_3
*1057 FILLER_18_32
*1058 FILLER_18_39
*1059 FILLER_18_6
*1060 FILLER_18_61
*1061 FILLER_18_64
*1062 FILLER_18_67
*1063 FILLER_18_77
*1064 FILLER_18_83
*1065 FILLER_18_85
*1066 FILLER_18_90
*1067 FILLER_19_109
*1068 FILLER_19_11
*1069 FILLER_19_113
*1070 FILLER_19_123
*1071 FILLER_19_126
*1072 FILLER_19_129
*1073 FILLER_19_139
*1074 FILLER_19_142
*1075 FILLER_19_150
*1076 FILLER_19_158
*1077 FILLER_19_163
*1078 FILLER_19_166
*1079 FILLER_19_169
*1080 FILLER_19_172
*1081 FILLER_19_195
*1082 FILLER_19_198
*1083 FILLER_19_203
*1084 FILLER_19_213
*1085 FILLER_19_222
*1086 FILLER_19_225
*1087 FILLER_19_233
*1088 FILLER_19_236
*1089 FILLER_19_248
*1090 FILLER_19_254
*1091 FILLER_19_3
*1092 FILLER_19_33
*1093 FILLER_19_36
*1094 FILLER_19_39
*1095 FILLER_19_44
*1096 FILLER_19_55
*1097 FILLER_19_57
*1098 FILLER_19_63
*1099 FILLER_19_7
*1100 FILLER_19_85
*1101 FILLER_19_88
*1102 FILLER_19_98
*1103 FILLER_1_102
*1104 FILLER_1_111
*1105 FILLER_1_113
*1106 FILLER_1_116
*1107 FILLER_1_124
*1108 FILLER_1_147
*1109 FILLER_1_154
*1110 FILLER_1_157
*1111 FILLER_1_166
*1112 FILLER_1_169
*1113 FILLER_1_191
*1114 FILLER_1_213
*1115 FILLER_1_216
*1116 FILLER_1_223
*1117 FILLER_1_225
*1118 FILLER_1_24
*1119 FILLER_1_247
*1120 FILLER_1_254
*1121 FILLER_1_3
*1122 FILLER_1_32
*1123 FILLER_1_40
*1124 FILLER_1_47
*1125 FILLER_1_55
*1126 FILLER_1_57
*1127 FILLER_1_62
*1128 FILLER_1_70
*1129 FILLER_1_95
*1130 FILLER_20_104
*1131 FILLER_20_119
*1132 FILLER_20_128
*1133 FILLER_20_138
*1134 FILLER_20_141
*1135 FILLER_20_144
*1136 FILLER_20_147
*1137 FILLER_20_156
*1138 FILLER_20_162
*1139 FILLER_20_167
*1140 FILLER_20_170
*1141 FILLER_20_177
*1142 FILLER_20_184
*1143 FILLER_20_195
*1144 FILLER_20_197
*1145 FILLER_20_209
*1146 FILLER_20_212
*1147 FILLER_20_222
*1148 FILLER_20_230
*1149 FILLER_20_24
*1150 FILLER_20_250
*1151 FILLER_20_253
*1152 FILLER_20_27
*1153 FILLER_20_29
*1154 FILLER_20_3
*1155 FILLER_20_39
*1156 FILLER_20_61
*1157 FILLER_20_72
*1158 FILLER_20_80
*1159 FILLER_20_83
*1160 FILLER_20_85
*1161 FILLER_20_88
*1162 FILLER_20_98
*1163 FILLER_21_100
*1164 FILLER_21_109
*1165 FILLER_21_113
*1166 FILLER_21_120
*1167 FILLER_21_123
*1168 FILLER_21_132
*1169 FILLER_21_135
*1170 FILLER_21_145
*1171 FILLER_21_15
*1172 FILLER_21_153
*1173 FILLER_21_160
*1174 FILLER_21_167
*1175 FILLER_21_169
*1176 FILLER_21_190
*1177 FILLER_21_211
*1178 FILLER_21_220
*1179 FILLER_21_223
*1180 FILLER_21_225
*1181 FILLER_21_237
*1182 FILLER_21_246
*1183 FILLER_21_254
*1184 FILLER_21_26
*1185 FILLER_21_3
*1186 FILLER_21_33
*1187 FILLER_21_36
*1188 FILLER_21_39
*1189 FILLER_21_42
*1190 FILLER_21_45
*1191 FILLER_21_48
*1192 FILLER_21_55
*1193 FILLER_21_57
*1194 FILLER_21_60
*1195 FILLER_21_63
*1196 FILLER_21_66
*1197 FILLER_21_69
*1198 FILLER_21_7
*1199 FILLER_21_75
*1200 FILLER_22_106
*1201 FILLER_22_111
*1202 FILLER_22_118
*1203 FILLER_22_128
*1204 FILLER_22_13
*1205 FILLER_22_139
*1206 FILLER_22_141
*1207 FILLER_22_144
*1208 FILLER_22_147
*1209 FILLER_22_158
*1210 FILLER_22_166
*1211 FILLER_22_173
*1212 FILLER_22_176
*1213 FILLER_22_179
*1214 FILLER_22_185
*1215 FILLER_22_194
*1216 FILLER_22_197
*1217 FILLER_22_207
*1218 FILLER_22_210
*1219 FILLER_22_218
*1220 FILLER_22_238
*1221 FILLER_22_24
*1222 FILLER_22_247
*1223 FILLER_22_251
*1224 FILLER_22_253
*1225 FILLER_22_27
*1226 FILLER_22_29
*1227 FILLER_22_3
*1228 FILLER_22_32
*1229 FILLER_22_35
*1230 FILLER_22_38
*1231 FILLER_22_41
*1232 FILLER_22_44
*1233 FILLER_22_56
*1234 FILLER_22_59
*1235 FILLER_22_6
*1236 FILLER_22_62
*1237 FILLER_22_65
*1238 FILLER_22_68
*1239 FILLER_22_71
*1240 FILLER_22_82
*1241 FILLER_22_85
*1242 FILLER_22_92
*1243 FILLER_23_100
*1244 FILLER_23_111
*1245 FILLER_23_113
*1246 FILLER_23_119
*1247 FILLER_23_124
*1248 FILLER_23_127
*1249 FILLER_23_144
*1250 FILLER_23_147
*1251 FILLER_23_156
*1252 FILLER_23_163
*1253 FILLER_23_166
*1254 FILLER_23_169
*1255 FILLER_23_176
*1256 FILLER_23_180
*1257 FILLER_23_200
*1258 FILLER_23_208
*1259 FILLER_23_214
*1260 FILLER_23_218
*1261 FILLER_23_223
*1262 FILLER_23_225
*1263 FILLER_23_231
*1264 FILLER_23_244
*1265 FILLER_23_25
*1266 FILLER_23_253
*1267 FILLER_23_3
*1268 FILLER_23_32
*1269 FILLER_23_55
*1270 FILLER_23_57
*1271 FILLER_23_63
*1272 FILLER_23_85
*1273 FILLER_23_92
*1274 FILLER_24_102
*1275 FILLER_24_113
*1276 FILLER_24_122
*1277 FILLER_24_127
*1278 FILLER_24_135
*1279 FILLER_24_138
*1280 FILLER_24_141
*1281 FILLER_24_144
*1282 FILLER_24_156
*1283 FILLER_24_159
*1284 FILLER_24_170
*1285 FILLER_24_177
*1286 FILLER_24_180
*1287 FILLER_24_193
*1288 FILLER_24_197
*1289 FILLER_24_205
*1290 FILLER_24_210
*1291 FILLER_24_213
*1292 FILLER_24_218
*1293 FILLER_24_223
*1294 FILLER_24_228
*1295 FILLER_24_24
*1296 FILLER_24_248
*1297 FILLER_24_251
*1298 FILLER_24_253
*1299 FILLER_24_27
*1300 FILLER_24_29
*1301 FILLER_24_3
*1302 FILLER_24_39
*1303 FILLER_24_62
*1304 FILLER_24_65
*1305 FILLER_24_71
*1306 FILLER_24_82
*1307 FILLER_24_85
*1308 FILLER_24_92
*1309 FILLER_25_10
*1310 FILLER_25_110
*1311 FILLER_25_113
*1312 FILLER_25_120
*1313 FILLER_25_123
*1314 FILLER_25_132
*1315 FILLER_25_143
*1316 FILLER_25_150
*1317 FILLER_25_16
*1318 FILLER_25_160
*1319 FILLER_25_167
*1320 FILLER_25_169
*1321 FILLER_25_177
*1322 FILLER_25_180
*1323 FILLER_25_184
*1324 FILLER_25_19
*1325 FILLER_25_197
*1326 FILLER_25_202
*1327 FILLER_25_205
*1328 FILLER_25_214
*1329 FILLER_25_223
*1330 FILLER_25_225
*1331 FILLER_25_234
*1332 FILLER_25_243
*1333 FILLER_25_249
*1334 FILLER_25_254
*1335 FILLER_25_3
*1336 FILLER_25_40
*1337 FILLER_25_43
*1338 FILLER_25_46
*1339 FILLER_25_54
*1340 FILLER_25_57
*1341 FILLER_25_60
*1342 FILLER_25_63
*1343 FILLER_25_7
*1344 FILLER_25_85
*1345 FILLER_25_88
*1346 FILLER_25_99
*1347 FILLER_26_108
*1348 FILLER_26_111
*1349 FILLER_26_121
*1350 FILLER_26_124
*1351 FILLER_26_131
*1352 FILLER_26_134
*1353 FILLER_26_137
*1354 FILLER_26_141
*1355 FILLER_26_144
*1356 FILLER_26_152
*1357 FILLER_26_162
*1358 FILLER_26_171
*1359 FILLER_26_174
*1360 FILLER_26_194
*1361 FILLER_26_197
*1362 FILLER_26_201
*1363 FILLER_26_21
*1364 FILLER_26_212
*1365 FILLER_26_215
*1366 FILLER_26_230
*1367 FILLER_26_233
*1368 FILLER_26_24
*1369 FILLER_26_246
*1370 FILLER_26_251
*1371 FILLER_26_253
*1372 FILLER_26_27
*1373 FILLER_26_29
*1374 FILLER_26_3
*1375 FILLER_26_32
*1376 FILLER_26_44
*1377 FILLER_26_51
*1378 FILLER_26_6
*1379 FILLER_26_62
*1380 FILLER_26_65
*1381 FILLER_26_68
*1382 FILLER_26_71
*1383 FILLER_26_83
*1384 FILLER_26_85
*1385 FILLER_26_88
*1386 FILLER_26_9
*1387 FILLER_26_91
*1388 FILLER_26_94
*1389 FILLER_26_97
*1390 FILLER_27_106
*1391 FILLER_27_11
*1392 FILLER_27_111
*1393 FILLER_27_113
*1394 FILLER_27_132
*1395 FILLER_27_143
*1396 FILLER_27_147
*1397 FILLER_27_150
*1398 FILLER_27_153
*1399 FILLER_27_162
*1400 FILLER_27_165
*1401 FILLER_27_169
*1402 FILLER_27_176
*1403 FILLER_27_181
*1404 FILLER_27_190
*1405 FILLER_27_199
*1406 FILLER_27_208
*1407 FILLER_27_213
*1408 FILLER_27_22
*1409 FILLER_27_222
*1410 FILLER_27_225
*1411 FILLER_27_228
*1412 FILLER_27_240
*1413 FILLER_27_249
*1414 FILLER_27_25
*1415 FILLER_27_254
*1416 FILLER_27_28
*1417 FILLER_27_3
*1418 FILLER_27_50
*1419 FILLER_27_53
*1420 FILLER_27_57
*1421 FILLER_27_60
*1422 FILLER_27_63
*1423 FILLER_27_7
*1424 FILLER_27_86
*1425 FILLER_27_89
*1426 FILLER_27_92
*1427 FILLER_27_95
*1428 FILLER_27_98
*1429 FILLER_28_107
*1430 FILLER_28_120
*1431 FILLER_28_126
*1432 FILLER_28_129
*1433 FILLER_28_137
*1434 FILLER_28_141
*1435 FILLER_28_145
*1436 FILLER_28_150
*1437 FILLER_28_160
*1438 FILLER_28_169
*1439 FILLER_28_172
*1440 FILLER_28_178
*1441 FILLER_28_191
*1442 FILLER_28_195
*1443 FILLER_28_197
*1444 FILLER_28_202
*1445 FILLER_28_205
*1446 FILLER_28_213
*1447 FILLER_28_222
*1448 FILLER_28_230
*1449 FILLER_28_24
*1450 FILLER_28_250
*1451 FILLER_28_253
*1452 FILLER_28_27
*1453 FILLER_28_29
*1454 FILLER_28_3
*1455 FILLER_28_37
*1456 FILLER_28_48
*1457 FILLER_28_55
*1458 FILLER_28_63
*1459 FILLER_28_74
*1460 FILLER_28_81
*1461 FILLER_28_85
*1462 FILLER_28_88
*1463 FILLER_28_91
*1464 FILLER_28_94
*1465 FILLER_28_98
*1466 FILLER_29_102
*1467 FILLER_29_111
*1468 FILLER_29_113
*1469 FILLER_29_125
*1470 FILLER_29_13
*1471 FILLER_29_145
*1472 FILLER_29_158
*1473 FILLER_29_167
*1474 FILLER_29_169
*1475 FILLER_29_172
*1476 FILLER_29_192
*1477 FILLER_29_201
*1478 FILLER_29_207
*1479 FILLER_29_212
*1480 FILLER_29_215
*1481 FILLER_29_223
*1482 FILLER_29_225
*1483 FILLER_29_235
*1484 FILLER_29_24
*1485 FILLER_29_250
*1486 FILLER_29_254
*1487 FILLER_29_27
*1488 FILLER_29_3
*1489 FILLER_29_30
*1490 FILLER_29_51
*1491 FILLER_29_54
*1492 FILLER_29_57
*1493 FILLER_29_6
*1494 FILLER_29_78
*1495 FILLER_29_89
*1496 FILLER_29_92
*1497 FILLER_29_95
*1498 FILLER_2_113
*1499 FILLER_2_137
*1500 FILLER_2_141
*1501 FILLER_2_155
*1502 FILLER_2_164
*1503 FILLER_2_173
*1504 FILLER_2_18
*1505 FILLER_2_182
*1506 FILLER_2_187
*1507 FILLER_2_195
*1508 FILLER_2_197
*1509 FILLER_2_208
*1510 FILLER_2_226
*1511 FILLER_2_241
*1512 FILLER_2_249
*1513 FILLER_2_253
*1514 FILLER_2_27
*1515 FILLER_2_29
*1516 FILLER_2_3
*1517 FILLER_2_49
*1518 FILLER_2_70
*1519 FILLER_2_75
*1520 FILLER_2_83
*1521 FILLER_2_85
*1522 FILLER_2_89
*1523 FILLER_2_9
*1524 FILLER_2_98
*1525 FILLER_30_108
*1526 FILLER_30_128
*1527 FILLER_30_134
*1528 FILLER_30_139
*1529 FILLER_30_141
*1530 FILLER_30_144
*1531 FILLER_30_163
*1532 FILLER_30_176
*1533 FILLER_30_180
*1534 FILLER_30_195
*1535 FILLER_30_197
*1536 FILLER_30_218
*1537 FILLER_30_224
*1538 FILLER_30_244
*1539 FILLER_30_25
*1540 FILLER_30_250
*1541 FILLER_30_253
*1542 FILLER_30_29
*1543 FILLER_30_3
*1544 FILLER_30_32
*1545 FILLER_30_55
*1546 FILLER_30_58
*1547 FILLER_30_61
*1548 FILLER_30_83
*1549 FILLER_30_85
*1550 FILLER_31_100
*1551 FILLER_31_103
*1552 FILLER_31_106
*1553 FILLER_31_11
*1554 FILLER_31_111
*1555 FILLER_31_113
*1556 FILLER_31_121
*1557 FILLER_31_126
*1558 FILLER_31_129
*1559 FILLER_31_134
*1560 FILLER_31_139
*1561 FILLER_31_141
*1562 FILLER_31_147
*1563 FILLER_31_156
*1564 FILLER_31_165
*1565 FILLER_31_169
*1566 FILLER_31_173
*1567 FILLER_31_178
*1568 FILLER_31_18
*1569 FILLER_31_181
*1570 FILLER_31_189
*1571 FILLER_31_195
*1572 FILLER_31_197
*1573 FILLER_31_201
*1574 FILLER_31_206
*1575 FILLER_31_209
*1576 FILLER_31_216
*1577 FILLER_31_223
*1578 FILLER_31_225
*1579 FILLER_31_23
*1580 FILLER_31_233
*1581 FILLER_31_238
*1582 FILLER_31_244
*1583 FILLER_31_247
*1584 FILLER_31_251
*1585 FILLER_31_253
*1586 FILLER_31_27
*1587 FILLER_31_29
*1588 FILLER_31_3
*1589 FILLER_31_34
*1590 FILLER_31_38
*1591 FILLER_31_50
*1592 FILLER_31_53
*1593 FILLER_31_57
*1594 FILLER_31_62
*1595 FILLER_31_66
*1596 FILLER_31_69
*1597 FILLER_31_7
*1598 FILLER_31_72
*1599 FILLER_31_75
*1600 FILLER_31_81
*1601 FILLER_31_85
*1602 FILLER_31_90
*1603 FILLER_31_94
*1604 FILLER_31_97
*1605 FILLER_3_10
*1606 FILLER_3_102
*1607 FILLER_3_111
*1608 FILLER_3_113
*1609 FILLER_3_119
*1610 FILLER_3_130
*1611 FILLER_3_145
*1612 FILLER_3_15
*1613 FILLER_3_155
*1614 FILLER_3_163
*1615 FILLER_3_167
*1616 FILLER_3_169
*1617 FILLER_3_177
*1618 FILLER_3_184
*1619 FILLER_3_195
*1620 FILLER_3_201
*1621 FILLER_3_21
*1622 FILLER_3_223
*1623 FILLER_3_225
*1624 FILLER_3_231
*1625 FILLER_3_24
*1626 FILLER_3_253
*1627 FILLER_3_3
*1628 FILLER_3_30
*1629 FILLER_3_35
*1630 FILLER_3_40
*1631 FILLER_3_47
*1632 FILLER_3_54
*1633 FILLER_3_57
*1634 FILLER_3_6
*1635 FILLER_3_74
*1636 FILLER_3_79
*1637 FILLER_3_89
*1638 FILLER_4_106
*1639 FILLER_4_114
*1640 FILLER_4_126
*1641 FILLER_4_139
*1642 FILLER_4_14
*1643 FILLER_4_141
*1644 FILLER_4_151
*1645 FILLER_4_158
*1646 FILLER_4_167
*1647 FILLER_4_173
*1648 FILLER_4_195
*1649 FILLER_4_197
*1650 FILLER_4_205
*1651 FILLER_4_210
*1652 FILLER_4_221
*1653 FILLER_4_23
*1654 FILLER_4_230
*1655 FILLER_4_242
*1656 FILLER_4_245
*1657 FILLER_4_251
*1658 FILLER_4_253
*1659 FILLER_4_27
*1660 FILLER_4_29
*1661 FILLER_4_3
*1662 FILLER_4_34
*1663 FILLER_4_39
*1664 FILLER_4_61
*1665 FILLER_4_69
*1666 FILLER_4_7
*1667 FILLER_4_77
*1668 FILLER_4_83
*1669 FILLER_4_85
*1670 FILLER_5_100
*1671 FILLER_5_108