*SPEF "ieee 1481-1999"
*DESIGN "gpio_control_block"
*DATE "20:32:53 Saturday June 14, 2025"
*VENDOR "The OpenROAD Project"
*PROGRAM "OpenROAD"
*VERSION "edf00dff99f6c40d67a30c0e22a8191c5d2ed9d6"
*DESIGN_FLOW "NAME_SCOPE LOCAL" "PIN_CAP NONE"
*DIVIDER /
*DELIMITER :
*BUS_DELIMITER []
*T_UNIT 1 NS
*C_UNIT 1 PF
*R_UNIT 1 OHM
*L_UNIT 1 HENRY

*NAME_MAP
*1 gpio_defaults[0]
*2 gpio_defaults[10]
*3 gpio_defaults[11]
*4 gpio_defaults[12]
*5 gpio_defaults[13]
*6 gpio_defaults[14]
*7 gpio_defaults[15]
*8 gpio_defaults[1]
*9 gpio_defaults[2]
*10 gpio_defaults[3]
*11 gpio_defaults[4]
*12 gpio_defaults[5]
*13 gpio_defaults[6]
*14 gpio_defaults[7]
*15 gpio_defaults[8]
*16 gpio_defaults[9]
*17 mgmt_gpio_in
*18 mgmt_gpio_oeb
*19 mgmt_gpio_out
*20 pad_gpio_ana_en
*21 pad_gpio_ana_pol
*22 pad_gpio_ana_sel
*23 pad_gpio_dm[0]
*24 pad_gpio_dm[1]
*25 pad_gpio_dm[2]
*26 pad_gpio_holdover
*27 pad_gpio_hys_trim
*28 pad_gpio_ib_mode_sel
*29 pad_gpio_in
*30 pad_gpio_inenb
*31 pad_gpio_out
*32 pad_gpio_outenb
*33 pad_gpio_slew_ctl[0]
*34 net44
*35 pad_gpio_slow_sel
*36 pad_gpio_vtrip_sel
*37 resetn
*38 resetn_out
*39 serial_clock
*40 serial_clock_out
*41 serial_data_in
*42 serial_data_out
*43 serial_load
*44 serial_load_out
*45 user_gpio_in
*46 user_gpio_oeb
*47 user_gpio_out
*52 _000_
*53 _001_
*54 _002_
*55 _003_
*56 _004_
*57 _005_
*58 _006_
*59 _007_
*60 _008_
*61 _009_
*62 _010_
*63 _011_
*64 _012_
*65 _013_
*66 _014_
*67 _015_
*68 _016_
*69 _017_
*70 _018_
*71 _019_
*72 _020_
*73 _021_
*74 _022_
*75 _023_
*76 _024_
*77 _025_
*78 _026_
*79 _027_
*80 _028_
*81 _029_
*82 _030_
*83 _031_
*84 _032_
*85 _033_
*86 _034_
*87 _035_
*88 _036_
*89 _037_
*90 _038_
*91 _039_
*92 _040_
*93 _041_
*94 _042_
*95 _043_
*96 _044_
*97 _045_
*98 _046_
*99 _047_
*100 _048_
*101 _049_
*102 _050_
*103 _051_
*104 _052_
*105 _053_
*106 _054_
*107 _055_
*108 _056_
*109 gpio_logic1
*110 gpio_slew_ctl
*111 mgmt_ena
*112 net1
*113 net10
*114 net11
*115 net12
*116 net13
*117 net14
*118 net15
*119 net16
*120 net17
*121 net18
*122 net19
*123 net2
*124 net20
*125 net21
*126 net22
*127 net23
*128 net24
*129 net25
*130 net26
*131 net27
*132 net28
*133 net29
*134 net3
*135 net30
*136 net31
*137 net32
*138 net33
*139 net34
*140 net35
*141 net36
*142 net37
*143 net38
*144 net39
*145 net4
*146 net40
*147 net41
*148 net42
*149 net43
*150 net45
*151 net46
*152 net47
*153 net48
*154 net49
*155 net5
*156 net50
*157 net51
*158 net52
*159 net53
*160 net54
*161 net55
*162 net56
*163 net57
*164 net58
*165 net59
*166 net6
*167 net60
*168 net61
*169 net62
*170 net63
*171 net64
*172 net65
*173 net66
*174 net67
*175 net68
*176 net69
*177 net7
*178 net70
*179 net71
*180 net72
*181 net8
*182 net9
*183 shift_register\[0\]
*184 shift_register\[10\]
*185 shift_register\[11\]
*186 shift_register\[12\]
*187 shift_register\[13\]
*188 shift_register\[14\]
*189 shift_register\[15\]
*190 shift_register\[1\]
*191 shift_register\[2\]
*192 shift_register\[3\]
*193 shift_register\[4\]
*194 shift_register\[5\]
*195 shift_register\[6\]
*196 shift_register\[7\]
*197 shift_register\[8\]
*198 shift_register\[9\]
*199 BUF\[0\]
*200 BUF\[1\]
*201 BUF\[2\]
*202 FILLER_0_23
*203 FILLER_0_35
*204 FILLER_0_47
*205 FILLER_0_49
*206 FILLER_0_57
*207 FILLER_0_77
*208 FILLER_10_15
*209 FILLER_10_27
*210 FILLER_10_29
*211 FILLER_10_3
*212 FILLER_10_37
*213 FILLER_10_70
*214 FILLER_10_80
*215 FILLER_10_90
*216 FILLER_11_25
*217 FILLER_11_48
*218 FILLER_11_9
*219 FILLER_11_91
*220 FILLER_12_22
*221 FILLER_12_29
*222 FILLER_12_3
*223 FILLER_12_45
*224 FILLER_12_53
*225 FILLER_12_67
*226 FILLER_12_90
*227 FILLER_13_3
*228 FILLER_13_40
*229 FILLER_13_52
*230 FILLER_13_57
*231 FILLER_13_74
*232 FILLER_14_19
*233 FILLER_14_32
*234 FILLER_14_43
*235 FILLER_14_72
*236 FILLER_14_90
*237 FILLER_15_23
*238 FILLER_15_57
*239 FILLER_15_90
*240 FILLER_16_18
*241 FILLER_16_49
*242 FILLER_16_90
*243 FILLER_17_55
*244 FILLER_17_57
*245 FILLER_18_14
*246 FILLER_18_29
*247 FILLER_18_58
*248 FILLER_18_90
*249 FILLER_19_43
*250 FILLER_19_90
*251 FILLER_1_23
*252 FILLER_1_29
*253 FILLER_1_66
*254 FILLER_1_75
*255 FILLER_1_77
*256 FILLER_1_85
*257 FILLER_20_29
*258 FILLER_20_3
*259 FILLER_20_83
*260 FILLER_20_90
*261 FILLER_21_19
*262 FILLER_21_62
*263 FILLER_22_29
*264 FILLER_22_3
*265 FILLER_22_90
*266 FILLER_23_3
*267 FILLER_23_90
*268 FILLER_2_28
*269 FILLER_2_40
*270 FILLER_2_44
*271 FILLER_2_57
*272 FILLER_2_91
*273 FILLER_3_23
*274 FILLER_3_31
*275 FILLER_3_90
*276 FILLER_4_15
*277 FILLER_4_27
*278 FILLER_4_29
*279 FILLER_4_3
*280 FILLER_4_35
*281 FILLER_4_80
*282 FILLER_4_90
*283 FILLER_5_18
*284 FILLER_5_30
*285 FILLER_5_54
*286 FILLER_5_57
*287 FILLER_5_6
*288 FILLER_5_63
*289 FILLER_6_10
*290 FILLER_6_17
*291 FILLER_6_25
*292 FILLER_6_29
*293 FILLER_6_3
*294 FILLER_6_37
*295 FILLER_6_66
*296 FILLER_6_90
*297 FILLER_7_23
*298 FILLER_7_35
*299 FILLER_7_47
*300 FILLER_7_57
*301 FILLER_8_19
*302 FILLER_8_27
*303 FILLER_8_29
*304 FILLER_8_41
*305 FILLER_8_90
*306 FILLER_9_18
*307 FILLER_9_30
*308 FILLER_9_34
*309 FILLER_9_55
*310 FILLER_9_57
*311 FILLER_9_6
*312 PHY_EDGE_ROW_0_2_Left_3
*313 PHY_EDGE_ROW_0_2_Right_27
*314 PHY_EDGE_ROW_10_Left_34
*315 PHY_EDGE_ROW_10_Right_13
*316 PHY_EDGE_ROW_11_Left_35
*317 PHY_EDGE_ROW_11_Right_14
*318 PHY_EDGE_ROW_12_Left_36
*319 PHY_EDGE_ROW_12_Right_15
*320 PHY_EDGE_ROW_13_Left_37
*321 PHY_EDGE_ROW_13_Right_16
*322 PHY_EDGE_ROW_14_Left_38
*323 PHY_EDGE_ROW_14_Right_17
*324 PHY_EDGE_ROW_15_Left_39
*325 PHY_EDGE_ROW_15_Right_18
*326 PHY_EDGE_ROW_16_Left_40
*327 PHY_EDGE_ROW_16_Right_19
*328 PHY_EDGE_ROW_17_Left_41
*329 PHY_EDGE_ROW_17_Right_20
*330 PHY_EDGE_ROW_18_Left_42
*331 PHY_EDGE_ROW_18_Right_21
*332 PHY_EDGE_ROW_19_Left_43
*333 PHY_EDGE_ROW_19_Right_22
*334 PHY_EDGE_ROW_1_2_Left_0
*335 PHY_EDGE_ROW_1_2_Right_4
*336 PHY_EDGE_ROW_20_Left_44
*337 PHY_EDGE_ROW_20_Right_23
*338 PHY_EDGE_ROW_21_Left_45
*339 PHY_EDGE_ROW_21_Right_24
*340 PHY_EDGE_ROW_22_Left_46
*341 PHY_EDGE_ROW_22_Right_25
*342 PHY_EDGE_ROW_23_Left_47
*343 PHY_EDGE_ROW_23_Right_26
*344 PHY_EDGE_ROW_2_2_Left_1
*345 PHY_EDGE_ROW_2_2_Right_5
*346 PHY_EDGE_ROW_3_2_Left_2
*347 PHY_EDGE_ROW_3_2_Right_6
*348 PHY_EDGE_ROW_4_Left_28
*349 PHY_EDGE_ROW_4_Right_7
*350 PHY_EDGE_ROW_5_Left_29
*351 PHY_EDGE_ROW_5_Right_8
*352 PHY_EDGE_ROW_6_Left_30
*353 PHY_EDGE_ROW_6_Right_9
*354 PHY_EDGE_ROW_7_Left_31
*355 PHY_EDGE_ROW_7_Right_10
*356 PHY_EDGE_ROW_8_Left_32
*357 PHY_EDGE_ROW_8_Right_11
*358 PHY_EDGE_ROW_9_Left_33
*359 PHY_EDGE_ROW_9_Right_12
*360 TAP_TAPCELL_ROW_0_2_84
*361 TAP_TAPCELL_ROW_0_2_85
*362 TAP_TAPCELL_ROW_10_61
*363 TAP_TAPCELL_ROW_10_62
*364 TAP_TAPCELL_ROW_11_63
*365 TAP_TAPCELL_ROW_12_64
*366 TAP_TAPCELL_ROW_12_65
*367 TAP_TAPCELL_ROW_13_66
*368 TAP_TAPCELL_ROW_14_67
*369 TAP_TAPCELL_ROW_14_68
*370 TAP_TAPCELL_ROW_15_69
*371 TAP_TAPCELL_ROW_16_70
*372 TAP_TAPCELL_ROW_16_71
*373 TAP_TAPCELL_ROW_17_72
*374 TAP_TAPCELL_ROW_18_73
*375 TAP_TAPCELL_ROW_18_74
*376 TAP_TAPCELL_ROW_19_75
*377 TAP_TAPCELL_ROW_1_2_48
*378 TAP_TAPCELL_ROW_20_76
*379 TAP_TAPCELL_ROW_20_77
*380 TAP_TAPCELL_ROW_21_78
*381 TAP_TAPCELL_ROW_22_79
*382 TAP_TAPCELL_ROW_22_80
*383 TAP_TAPCELL_ROW_23_81
*384 TAP_TAPCELL_ROW_23_82
*385 TAP_TAPCELL_ROW_23_83
*386 TAP_TAPCELL_ROW_2_2_49
*387 TAP_TAPCELL_ROW_3_2_50
*388 TAP_TAPCELL_ROW_4_51
*389 TAP_TAPCELL_ROW_4_52
*390 TAP_TAPCELL_ROW_4_53
*391 TAP_TAPCELL_ROW_5_54
*392 TAP_TAPCELL_ROW_6_55
*393 TAP_TAPCELL_ROW_6_56
*394 TAP_TAPCELL_ROW_7_57
*395 TAP_TAPCELL_ROW_8_58
*396 TAP_TAPCELL_ROW_8_59
*397 TAP_TAPCELL_ROW_9_60
*398 _057_
*399 _058_
*400 _059_
*401 _060_
*402 _061_
*403 _062_
*404 _063_
*405 _064_
*406 _065_
*407 _066_
*408 _067_
*409 _068_
*410 _069_
*411 _070_
*412 _071_
*413 _072_
*414 _073_
*415 _074_
*416 _075_
*417 _076_
*418 _077_
*419 _078_
*420 _079_
*421 _080_
*422 _081_
*423 _082_
*424 _083_
*425 _084_
*426 _085_
*427 _086_
*428 _087_
*429 _088_
*430 _089_
*431 _090_
*432 _091_
*433 _092_
*434 _093_
*435 _094_
*436 _095_
*437 _096_
*438 _097_
*439 _098_
*440 _099_
*441 _100_
*442 _101_
*443 _102_
*444 _103_
*445 _104_
*446 _105_
*447 _106_
*448 _107_
*449 _108_
*450 _109_
*451 _110_
*452 _111_
*453 _112_
*454 _113_
*455 _114_
*456 _115_
*457 _116_
*458 _117_
*459 _118_
*460 _119_
*461 _120_
*462 _121_
*463 _122_
*464 _123_
*465 _124_
*466 _125_
*467 _126_
*468 _127_
*469 _128_
*470 _129_
*471 _130_
*472 _131_
*473 _132_
*474 _133_
*475 _134_
*476 _136_
*477 fanout39
*478 fanout40
*479 fanout41
*480 fanout42
*481 fanout43
*482 gpio_control_block_44
*483 gpio_logic_high
*484 hold1
*485 hold10
*486 hold11
*487 hold12
*488 hold13
*489 hold14
*490 hold15
*491 hold16
*492 hold17
*493 hold18
*494 hold19
*495 hold2
*496 hold20
*497 hold21
*498 hold22
*499 hold23
*500 hold24
*501 hold25
*502 hold26
*503 hold27
*504 hold28
*505 hold3
*506 hold4
*507 hold5
*508 hold6
*509 hold7
*510 hold8
*511 hold9
*512 input1
*513 input10
*514 input11
*515 input12
*516 input13
*517 input14
*518 input15
*519 input16
*520 input17
*521 input18
*522 input19
*523 input2
*524 input20
*525 input3
*526 input4
*527 input5
*528 input6
*529 input7
*530 input8
*531 input9
*532 output21
*533 output22
*534 output23
*535 output24
*536 output25
*537 output26
*538 output27
*539 output28
*540 output29
*541 output30
*542 output31
*543 output32
*544 output33
*545 output34
*546 output35
*547 output36
*548 output37
*549 output38

*PORTS
gpio_defaults[0] I
gpio_defaults[10] I
gpio_defaults[11] I
gpio_defaults[12] I
gpio_defaults[13] I
gpio_defaults[14] I
gpio_defaults[15] I
gpio_defaults[1] I
gpio_defaults[2] I
gpio_defaults[3] I
gpio_defaults[4] I
gpio_defaults[5] I
gpio_defaults[6] I
gpio_defaults[7] I
gpio_defaults[8] I
gpio_defaults[9] I
mgmt_gpio_in O
mgmt_gpio_oeb I
mgmt_gpio_out I
pad_gpio_ana_en O
pad_gpio_ana_pol O
pad_gpio_ana_sel O
pad_gpio_dm[0] O
pad_gpio_dm[1] O
pad_gpio_dm[2] O
pad_gpio_holdover O
pad_gpio_hys_trim O
pad_gpio_ib_mode_sel O
pad_gpio_in I
pad_gpio_inenb O
pad_gpio_out O
pad_gpio_outenb O
pad_gpio_slew_ctl[0] O
pad_gpio_slew_ctl[1] O
pad_gpio_slow_sel O
pad_gpio_vtrip_sel O
resetn I
resetn_out O
serial_clock I
serial_clock_out O
serial_data_in I
serial_data_out O
serial_load I
serial_load_out O
user_gpio_in O
user_gpio_oeb I
user_gpio_out I

*D_NET *1 0.00459749
*CONN
*P gpio_defaults[0] I
*I *507:A I *D sky130_fd_sc_hd__dlygate4sd3_1
*CAP
1 gpio_defaults[0] 0.00156482
2 *507:A 0.00156482
3 *507:A *485:A 0.000266861
4 *507:A *486:A 4.78056e-05
5 *507:A *495:A 0
6 *507:A *14:29 1.02937e-05
7 *507:A *154:16 0.00114289
*RES
1 gpio_defaults[0] *507:A 34.4786 
*END

*D_NET *2 0.00408693
*CONN
*P gpio_defaults[10] I
*I *485:A I *D sky130_fd_sc_hd__dlygate4sd3_1
*CAP
1 gpio_defaults[10] 0.00126409
2 *485:A 0.00126409
3 *485:A pad_gpio_outenb 0.000970878
4 *485:A *487:A 0
5 *485:A *506:A 2.10446e-05
6 *485:A *544:A 9.55638e-05
7 *485:A *14:29 0.000204399
8 *507:A *485:A 0.000266861
*RES
1 gpio_defaults[10] *485:A 33.0857 
*END

*D_NET *3 0.00185741
*CONN
*P gpio_defaults[11] I
*I *487:A I *D sky130_fd_sc_hd__dlygate4sd3_1
*CAP
1 gpio_defaults[11] 0.000720238
2 *487:A 0.000720238
3 *487:A pad_gpio_outenb 5.78793e-05
4 *487:A pad_gpio_vtrip_sel 9.41642e-05
5 *487:A *529:A 0.000186922
6 *487:A *4:19 2.46649e-05
7 *487:A *5:25 0
8 *487:A *177:10 5.33005e-05
9 *485:A *487:A 0
*RES
1 gpio_defaults[11] *487:A 24.7107 
*END

*D_NET *4 0.00539479
*CONN
*P gpio_defaults[12] I
*I *508:A I *D sky130_fd_sc_hd__dlygate4sd3_1
*CAP
1 gpio_defaults[12] 0.0011847
2 *508:A 0
3 *4:19 0.0011847
4 *4:19 *484:A 0.00101323
5 *4:19 *486:A 0.00117478
6 *4:19 *5:25 0
7 *4:19 *12:17 0.000357401
8 *4:19 *14:29 0.000304182
9 *4:19 *154:16 0.000151116
10 *487:A *4:19 2.46649e-05
*RES
1 gpio_defaults[12] *4:19 42.8214 
2 *4:19 *508:A 9.3 
*END

*D_NET *5 0.00928438
*CONN
*P gpio_defaults[13] I
*I *527:A I *D sky130_fd_sc_hd__clkbuf_1
*CAP
1 gpio_defaults[13] 0.00215691
2 *527:A 0.000396643
3 *5:25 0.00255356
4 *527:A *399:A 0.000348213
5 *527:A *471:CLK 4.08637e-05
6 *527:A *472:CLK 0.000199646
7 *527:A *39:118 3.06466e-05
8 *527:A *39:138 0.000152633
9 *527:A *114:14 6.05161e-06
10 *527:A *116:14 0.000495489
11 *527:A *155:10 0.000160296
12 *5:25 pad_gpio_out 0.000539961
13 *5:25 *412:B 2.13481e-06
14 *5:25 *423:A 1.48303e-05
15 *5:25 *423:B 0.000418721
16 *5:25 *453:D 0.000279352
17 *5:25 *453:RESET_B 3.18676e-05
18 *5:25 *453:SET_B 1.98236e-05
19 *5:25 *538:A 0.000265467
20 *5:25 *540:A 0.000749889
21 *5:25 *7:23 0.000279457
22 *5:25 *147:29 4.27566e-05
23 *5:25 *147:48 5.74499e-06
24 *5:25 *148:104 9.3424e-05
25 *487:A *5:25 0
26 *4:19 *5:25 0
*RES
1 gpio_defaults[13] *5:25 47.0179 
2 *5:25 *527:A 24.425 
*END

*D_NET *7 0.00590144
*CONN
*P gpio_defaults[15] I
*I *528:A I *D sky130_fd_sc_hd__clkbuf_1
*CAP
1 gpio_defaults[15] 0.00167805
2 *528:A 0
3 *7:23 0.00167805
4 *7:23 pad_gpio_ib_mode_sel 0.000418256
5 *7:23 *423:A 5.64715e-05
6 *7:23 *475:D 1.98839e-05
7 *7:23 *495:A 0.000245319
8 *7:23 *505:A 0.000310612
9 *7:23 *506:A 0.000663997
10 *7:23 *116:14 0.000428502
11 *7:23 *147:82 1.48995e-05
12 *7:23 *149:62 8.86669e-05
13 *7:23 *176:6 1.92789e-05
14 *5:25 *7:23 0.000279457
*RES
1 gpio_defaults[15] *7:23 44.6786 
2 *7:23 *528:A 9.3 
*END

*D_NET *9 0.00413532
*CONN
*P gpio_defaults[2] I
*I *495:A I *D sky130_fd_sc_hd__dlygate4sd3_1
*CAP
1 gpio_defaults[2] 0.00155541
2 *495:A 0.00155541
3 *495:A *450:RESET_B 0.000324174
4 *495:A *484:A 1.0562e-05
5 *495:A *486:A 0
6 *495:A *505:A 0
7 *495:A *510:A 3.42151e-05
8 *495:A *116:14 0
9 *495:A *147:82 0.00041023
10 *495:A *177:10 0
11 *507:A *495:A 0
12 *7:23 *495:A 0.000245319
*RES
1 gpio_defaults[2] *495:A 45.425 
*END

*D_NET *10 0.00324098
*CONN
*P gpio_defaults[3] I
*I *484:A I *D sky130_fd_sc_hd__dlygate4sd3_1
*CAP
1 gpio_defaults[3] 0.000982711
2 *484:A 0.000982711
3 *484:A *422:B 2.59355e-05
4 *484:A *505:A 0.000225828
5 *495:A *484:A 1.0562e-05
6 *4:19 *484:A 0.00101323
*RES
1 gpio_defaults[3] *484:A 40.6929 
*END

*D_NET *11 0.00476423
*CONN
*P gpio_defaults[4] I
*I *505:A I *D sky130_fd_sc_hd__dlygate4sd3_1
*CAP
1 gpio_defaults[4] 0.00170953
2 *505:A 0.00170953
3 *505:A *422:A 0.000149279
4 *505:A *449:RESET_B 9.22103e-06
5 *505:A *510:A 0
6 *505:A *530:A 0.000137983
7 *505:A *12:17 3.06882e-05
8 *505:A *14:29 0
9 *505:A *147:82 0.00035608
10 *505:A *152:14 9.02476e-05
11 *505:A *177:10 3.52194e-05
12 *484:A *505:A 0.000225828
13 *495:A *505:A 0
14 *7:23 *505:A 0.000310612
*RES
1 gpio_defaults[4] *505:A 39.2286 
*END

*D_NET *12 0.0056173
*CONN
*P gpio_defaults[5] I
*I *509:A I *D sky130_fd_sc_hd__dlygate4sd3_1
*CAP
1 gpio_defaults[5] 0.00219657
2 *509:A 0
3 *12:17 0.00219657
4 *12:17 *486:A 0.000789297
5 *12:17 *510:A 3.75146e-05
6 *12:17 *14:29 9.25014e-06
7 *505:A *12:17 3.06882e-05
8 *4:19 *12:17 0.000357401
*RES
1 gpio_defaults[5] *12:17 42.7679 
2 *12:17 *509:A 9.3 
*END

*D_NET *13 0.00375052
*CONN
*P gpio_defaults[6] I
*I *510:A I *D sky130_fd_sc_hd__dlygate4sd3_1
*CAP
1 gpio_defaults[6] 0.00152612
2 *510:A 0.00152612
3 *510:A *408:A_N 0.000150625
4 *510:A *457:SET_B 0.00019435
5 *510:A *461:D 0
6 *510:A *14:29 0.000185624
7 *510:A *177:10 9.59428e-05
8 *495:A *510:A 3.42151e-05
9 *505:A *510:A 0
10 *12:17 *510:A 3.75146e-05
*RES
1 gpio_defaults[6] *510:A 34.175 
*END

*D_NET *14 0.0055039
*CONN
*P gpio_defaults[7] I
*I *511:A I *D sky130_fd_sc_hd__dlygate4sd3_1
*CAP
1 gpio_defaults[7] 0.00121771
2 *511:A 0
3 *14:29 0.00121771
4 *14:29 pad_gpio_outenb 0.000131557
5 *14:29 *486:A 0.000249433
6 *14:29 *516:A 0.000277503
7 *14:29 *544:A 9.55638e-05
8 *14:29 *116:14 0.000767298
9 *14:29 *154:16 0.000168775
10 *14:29 *156:28 0.000177815
11 *14:29 *159:18 5.52302e-05
12 *14:29 *162:18 0.000332506
13 *14:29 *177:10 9.90431e-05
14 *485:A *14:29 0.000204399
15 *505:A *14:29 0
16 *507:A *14:29 1.02937e-05
17 *510:A *14:29 0.000185624
18 *4:19 *14:29 0.000304182
19 *12:17 *14:29 9.25014e-06
*RES
1 gpio_defaults[7] *14:29 41.7857 
2 *14:29 *511:A 9.3 
*END

*D_NET *15 0.00365443
*CONN
*P gpio_defaults[8] I
*I *486:A I *D sky130_fd_sc_hd__dlygate4sd3_1
*CAP
1 gpio_defaults[8] 0.000541501
2 *486:A 0.000541501
3 *486:A *506:A 6.60313e-05
4 *486:A *544:A 0.000183166
5 *486:A *147:82 1.578e-05
6 *486:A *154:16 4.51335e-05
7 *495:A *486:A 0
8 *507:A *486:A 4.78056e-05
9 *4:19 *486:A 0.00117478
10 *12:17 *486:A 0.000789297
11 *14:29 *486:A 0.000249433
*RES
1 gpio_defaults[8] *486:A 40.1571 
*END

*D_NET *16 0.00301424
*CONN
*P gpio_defaults[9] I
*I *506:A I *D sky130_fd_sc_hd__dlygate4sd3_1
*CAP
1 gpio_defaults[9] 0.000772082
2 *506:A 0.000772082
3 *506:A pad_gpio_ib_mode_sel 0.000385165
4 *506:A *543:A 0.000195855
5 *506:A *147:82 0.000137983
6 *485:A *506:A 2.10446e-05
7 *486:A *506:A 6.60313e-05
8 *7:23 *506:A 0.000663997
*RES
1 gpio_defaults[9] *506:A 29.7821 
*END

*D_NET *17 0.000909461
*CONN
*P mgmt_gpio_in O
*I *532:X O *D sky130_fd_sc_hd__buf_12
*CAP
1 mgmt_gpio_in 0.000454731
2 *532:X 0.000454731
3 mgmt_gpio_in *519:A 0
4 mgmt_gpio_in *521:A 0
5 mgmt_gpio_in *532:A 0
*RES
1 *532:X mgmt_gpio_in 24.3862 
*END

*D_NET *18 0.000884465
*CONN
*P mgmt_gpio_oeb I
*I *518:A I *D sky130_fd_sc_hd__clkbuf_1
*CAP
1 mgmt_gpio_oeb 0.000347207
2 *518:A 0.000347207
3 *518:A *200:A 0
4 *518:A *415:A1 0.000190051
5 *518:A *519:A 0
6 *518:A *524:A 0
*RES
1 mgmt_gpio_oeb *518:A 20.392 
*END

*D_NET *19 0.000548447
*CONN
*P mgmt_gpio_out I
*I *519:A I *D sky130_fd_sc_hd__clkbuf_1
*CAP
1 mgmt_gpio_out 0.000274223
2 *519:A 0.000274223
3 mgmt_gpio_in *519:A 0
4 *518:A *519:A 0
*RES
1 mgmt_gpio_out *519:A 20.7797 
*END

*D_NET *20 0.00338678
*CONN
*P pad_gpio_ana_en O
*I *533:X O *D sky130_fd_sc_hd__buf_12
*CAP
1 pad_gpio_ana_en 0.000878862
2 *533:X 0.000878862
3 pad_gpio_ana_en pad_gpio_dm[0] 0
4 pad_gpio_ana_en pad_gpio_dm[1] 0
5 pad_gpio_ana_en *401:B 4.04691e-06
6 pad_gpio_ana_en *425:A 6.87751e-05
7 pad_gpio_ana_en *492:A 0.000396318
8 pad_gpio_ana_en *533:A 0.00038907
9 pad_gpio_ana_en *126:16 0.000100607
10 pad_gpio_ana_en *134:30 0.000516221
11 pad_gpio_ana_en *144:42 3.60103e-05
12 pad_gpio_ana_en *144:44 0.000118011
*RES
1 *533:X pad_gpio_ana_en 31.626 
*END

*D_NET *21 0.00129424
*CONN
*P pad_gpio_ana_pol O
*I *534:X O *D sky130_fd_sc_hd__buf_12
*CAP
1 pad_gpio_ana_pol 0.000507428
2 *534:X 0.000480657
3 *21:15 2.67704e-05
4 pad_gpio_ana_pol pad_gpio_slew_ctl[0] 0
5 pad_gpio_ana_pol *429:B 7.15808e-05
6 pad_gpio_ana_pol *456:RESET_B 2.976e-05
7 pad_gpio_ana_pol *110:14 0.000178043
8 *21:15 pad_gpio_inenb 0
9 *21:15 *33:15 0
*RES
1 *534:X pad_gpio_ana_pol 25.4154 
2 pad_gpio_ana_pol *21:15 0.0595333 
*END

*D_NET *22 0.00161549
*CONN
*P pad_gpio_ana_sel O
*I *535:X O *D sky130_fd_sc_hd__buf_12
*CAP
1 pad_gpio_ana_sel 0.000634563
2 *535:X 0.000634563
3 pad_gpio_ana_sel pad_gpio_inenb 0
4 pad_gpio_ana_sel pad_gpio_slew_ctl[1] 0
5 pad_gpio_ana_sel *428:B 3.34295e-05
6 pad_gpio_ana_sel *455:RESET_B 3.63775e-05
7 pad_gpio_ana_sel *535:A 0.000125724
8 pad_gpio_ana_sel *110:14 3.22881e-05
9 pad_gpio_ana_sel *146:55 4.82805e-05
10 pad_gpio_ana_sel *152:40 7.02611e-05
*RES
1 *535:X pad_gpio_ana_sel 23.1975 
*END

*D_NET *23 0.00170901
*CONN
*P pad_gpio_dm[0] O
*I *536:X O *D sky130_fd_sc_hd__buf_12
*CAP
1 pad_gpio_dm[0] 0.000647405
2 *536:X 0.000647405
3 pad_gpio_dm[0] *424:B 0
4 pad_gpio_dm[0] *451:SET_B 6.2169e-06
5 pad_gpio_dm[0] *536:A 0.000129868
6 pad_gpio_dm[0] *33:15 0
7 pad_gpio_dm[0] *123:22 9.0145e-05
8 pad_gpio_dm[0] *126:16 0.000187966
9 pad_gpio_ana_en pad_gpio_dm[0] 0
*RES
1 *536:X pad_gpio_dm[0] 22.5202 
*END

*D_NET *24 0.00477576
*CONN
*P pad_gpio_dm[1] O
*I *537:X O *D sky130_fd_sc_hd__buf_12
*CAP
1 pad_gpio_dm[1] 0.00225921
2 *537:X 0.00225921
3 pad_gpio_dm[1] *469:RESET_B 0
4 pad_gpio_dm[1] *500:A 0.000162572
5 pad_gpio_dm[1] *537:A 9.47691e-05
6 pad_gpio_dm[1] *35:15 0
7 pad_gpio_dm[1] *116:26 0
8 pad_gpio_ana_en pad_gpio_dm[1] 0
*RES
1 *537:X pad_gpio_dm[1] 27.5202 
*END

*D_NET *25 0.00151389
*CONN
*P pad_gpio_dm[2] O
*I *538:X O *D sky130_fd_sc_hd__buf_12
*CAP
1 pad_gpio_dm[2] 0.000556071
2 *538:X 0.000529301
3 *25:15 2.67704e-05
4 pad_gpio_dm[2] *400:A_N 2.09072e-05
5 pad_gpio_dm[2] *441:A 9.41642e-05
6 pad_gpio_dm[2] *453:SET_B 0.000137832
7 pad_gpio_dm[2] *538:A 5.33005e-05
8 pad_gpio_dm[2] *145:24 9.55461e-05
9 *25:15 pad_gpio_holdover 0
10 *25:15 *27:15 0
*RES
1 *538:X pad_gpio_dm[2] 26.3261 
2 pad_gpio_dm[2] *25:15 0.0595333 
*END

*D_NET *26 0.00140366
*CONN
*P pad_gpio_holdover O
*I *539:X O *D sky130_fd_sc_hd__buf_12
*CAP
1 pad_gpio_holdover 0.000593816
2 *539:X 0.000593816
3 pad_gpio_holdover pad_gpio_out 0
4 pad_gpio_holdover *441:A 0.000137464
5 pad_gpio_holdover *453:SET_B 1.94879e-05
6 pad_gpio_holdover *457:RESET_B 5.90751e-05
7 pad_gpio_holdover *117:18 0
8 *25:15 pad_gpio_holdover 0
*RES
1 *539:X pad_gpio_holdover 20.2172 
*END

*D_NET *27 0.000962913
*CONN
*P pad_gpio_hys_trim O
*I *540:X O *D sky130_fd_sc_hd__buf_12
*CAP
1 pad_gpio_hys_trim 0.000467006
2 *540:X 0.000444755
3 *27:15 2.22503e-05
4 pad_gpio_hys_trim *540:A 0
5 pad_gpio_hys_trim *146:53 2.89016e-05
6 pad_gpio_hys_trim *182:12 0
7 *27:15 pad_gpio_slew_ctl[1] 0
8 *25:15 *27:15 0
*RES
1 *540:X pad_gpio_hys_trim 24.8618 
2 pad_gpio_hys_trim *27:15 0.0595333 
*END

*D_NET *28 0.00290353
*CONN
*P pad_gpio_ib_mode_sel O
*I *541:X O *D sky130_fd_sc_hd__buf_12
*CAP
1 pad_gpio_ib_mode_sel 0.000740008
2 *541:X 0.000722277
3 *28:15 1.77301e-05
4 pad_gpio_ib_mode_sel pad_gpio_out 0.000479652
5 pad_gpio_ib_mode_sel pad_gpio_outenb 0
6 pad_gpio_ib_mode_sel *421:A 1.21258e-05
7 pad_gpio_ib_mode_sel *423:A 0
8 pad_gpio_ib_mode_sel *543:A 0.000128321
9 *28:15 pad_gpio_vtrip_sel 0
10 *28:15 *32:15 0
11 *506:A pad_gpio_ib_mode_sel 0.000385165
12 *7:23 pad_gpio_ib_mode_sel 0.000418256
*RES
1 *541:X pad_gpio_ib_mode_sel 32.8975 
2 pad_gpio_ib_mode_sel *28:15 0.0595333 
*END

*D_NET *29 0.000700596
*CONN
*P pad_gpio_in I
*I *520:A I *D sky130_fd_sc_hd__buf_1
*CAP
1 pad_gpio_in 0.000350298
2 *520:A 0.000350298
3 *520:A *35:15 0
*RES
1 pad_gpio_in *520:A 19.8001 
*END

*D_NET *30 0.00139779
*CONN
*P pad_gpio_inenb O
*I *542:X O *D sky130_fd_sc_hd__buf_12
*CAP
1 pad_gpio_inenb 0.000622611
2 *542:X 0.000622611
3 pad_gpio_inenb *429:A 0.000147307
4 pad_gpio_inenb *429:B 5.25862e-06
5 pad_gpio_ana_sel pad_gpio_inenb 0
6 *21:15 pad_gpio_inenb 0
*RES
1 *542:X pad_gpio_inenb 23.8907 
*END

*D_NET *31 0.00268565
*CONN
*P pad_gpio_out O
*I *543:X O *D sky130_fd_sc_hd__buf_12
*CAP
1 pad_gpio_out 0.000536236
2 *543:X 0.000536236
3 pad_gpio_out pad_gpio_vtrip_sel 0
4 pad_gpio_out *421:A 8.35107e-05
5 pad_gpio_out *421:B 5.52238e-05
6 pad_gpio_out *423:A 4.6922e-05
7 pad_gpio_out *448:RESET_B 7.15808e-05
8 pad_gpio_out *147:164 0.000336329
9 pad_gpio_holdover pad_gpio_out 0
10 pad_gpio_ib_mode_sel pad_gpio_out 0.000479652
11 *5:25 pad_gpio_out 0.000539961
*RES
1 *543:X pad_gpio_out 30.4424 
*END

*D_NET *32 0.00364871
*CONN
*P pad_gpio_outenb O
*I *544:X O *D sky130_fd_sc_hd__buf_12
*CAP
1 pad_gpio_outenb 0.000855436
2 *544:X 0.000837706
3 *32:15 1.77301e-05
4 pad_gpio_outenb pad_gpio_vtrip_sel 0.000106313
5 pad_gpio_outenb *423:A 0.000133148
6 pad_gpio_outenb *529:A 0.00038161
7 pad_gpio_outenb *547:A 0.000140714
8 pad_gpio_outenb *177:10 1.57414e-05
9 pad_gpio_ib_mode_sel pad_gpio_outenb 0
10 *485:A pad_gpio_outenb 0.000970878
11 *487:A pad_gpio_outenb 5.78793e-05
12 *14:29 pad_gpio_outenb 0.000131557
13 *28:15 *32:15 0
*RES
1 *544:X pad_gpio_outenb 35.6832 
2 pad_gpio_outenb *32:15 0.0595333 
*END

*D_NET *33 0.00150076
*CONN
*P pad_gpio_slew_ctl[0] O
*I *545:X O *D sky130_fd_sc_hd__buf_12
*CAP
1 pad_gpio_slew_ctl[0] 0.000717527
2 *545:X 0.000695277
3 *33:15 2.22503e-05
4 pad_gpio_slew_ctl[0] *542:A 6.57032e-05
5 pad_gpio_ana_pol pad_gpio_slew_ctl[0] 0
6 pad_gpio_dm[0] *33:15 0
7 *21:15 *33:15 0
*RES
1 *545:X pad_gpio_slew_ctl[0] 28.0761 
2 pad_gpio_slew_ctl[0] *33:15 0.0595333 
*END

*D_NET *34 0.0024519
*CONN
*P pad_gpio_slew_ctl[1] O
*I *482:LO O *D sky130_fd_sc_hd__conb_1
*CAP
1 pad_gpio_slew_ctl[1] 0.00109714
2 *482:LO 0.00109714
3 pad_gpio_slew_ctl[1] *173:14 0.000257619
4 pad_gpio_ana_sel pad_gpio_slew_ctl[1] 0
5 *27:15 pad_gpio_slew_ctl[1] 0
*RES
1 *482:LO pad_gpio_slew_ctl[1] 22.0093 
*END

*D_NET *35 0.00426009
*CONN
*P pad_gpio_slow_sel O
*I *546:X O *D sky130_fd_sc_hd__buf_12
*CAP
1 pad_gpio_slow_sel 0.00094272
2 *546:X 0.00092499
3 *35:15 1.77301e-05
4 pad_gpio_slow_sel *411:A_N 0.000256761
5 pad_gpio_slow_sel *411:B 2.67132e-05
6 pad_gpio_slow_sel *425:A 7.24732e-05
7 pad_gpio_slow_sel *432:A 0.000261175
8 pad_gpio_slow_sel *469:CLK 5.60962e-05
9 pad_gpio_slow_sel *469:D 2.976e-05
10 pad_gpio_slow_sel *492:A 0.000756581
11 pad_gpio_slow_sel *546:A 0.000348687
12 pad_gpio_slow_sel *134:30 0.000566402
13 pad_gpio_dm[1] *35:15 0
14 *520:A *35:15 0
*RES
1 *546:X pad_gpio_slow_sel 41.6296 
2 pad_gpio_slow_sel *35:15 0.0595333 
*END

*D_NET *36 0.00254901
*CONN
*P pad_gpio_vtrip_sel O
*I *547:X O *D sky130_fd_sc_hd__buf_12
*CAP
1 pad_gpio_vtrip_sel 0.00071721
2 *547:X 0.00071721
3 pad_gpio_vtrip_sel *448:RESET_B 3.23026e-05
4 pad_gpio_vtrip_sel *450:RESET_B 9.92409e-05
5 pad_gpio_vtrip_sel *457:RESET_B 0.000101787
6 pad_gpio_vtrip_sel *547:A 0.000619597
7 pad_gpio_vtrip_sel *117:18 6.11887e-05
8 pad_gpio_out pad_gpio_vtrip_sel 0
9 pad_gpio_outenb pad_gpio_vtrip_sel 0.000106313
10 *487:A pad_gpio_vtrip_sel 9.41642e-05
11 *28:15 pad_gpio_vtrip_sel 0
*RES
1 *547:X pad_gpio_vtrip_sel 28.0897 
*END

*D_NET *37 0.0063994
*CONN
*P resetn I
*I *200:A I *D sky130_fd_sc_hd__clkbuf_8
*I *481:A I *D sky130_fd_sc_hd__clkbuf_2
*CAP
1 resetn 0.00127129
2 *200:A 0.00117543
3 *481:A 2.52056e-05
4 *37:21 0.00247193
5 *200:A *415:A0 0.000100831
6 *200:A *415:A1 0
7 *200:A *458:D 0
8 *200:A *480:A 0.000205767
9 *200:A *490:A 3.26952e-05
10 *200:A *39:171 9.61591e-05
11 *200:A *143:12 0
12 *200:A *152:14 0.000679219
13 *200:A *178:10 8.33655e-05
14 *481:A *416:A 5.52302e-05
15 *37:21 *416:B 0
16 *37:21 *39:9 0.000177184
17 *37:21 *43:5 0
18 *37:21 *134:14 0
19 *37:21 *143:12 2.50938e-05
20 *518:A *200:A 0
*RES
1 resetn *37:21 24.2319 
2 *37:21 *481:A 14.3357 
3 *37:21 *200:A 37.9071 
*END

*D_NET *38 0.000514214
*CONN
*P resetn_out O
*I *200:X O *D sky130_fd_sc_hd__clkbuf_8
*CAP
1 resetn_out 0.000257107
2 *200:X 0.000257107
3 resetn_out serial_clock_out 0
4 resetn_out serial_load_out 0
5 resetn_out user_gpio_in 0
*RES
1 *200:X resetn_out 20.2797 
*END

*D_NET *39 0.0253454
*CONN
*P serial_clock I
*I *458:CLK I *D sky130_fd_sc_hd__dfrtp_1
*I *465:CLK I *D sky130_fd_sc_hd__dfrtp_1
*I *472:CLK I *D sky130_fd_sc_hd__dfrtp_1
*I *473:CLK I *D sky130_fd_sc_hd__dfrtp_1
*I *461:CLK I *D sky130_fd_sc_hd__dfrtp_1
*I *462:CLK I *D sky130_fd_sc_hd__dfrtp_1
*I *201:A I *D sky130_fd_sc_hd__clkbuf_8
*I *460:CLK I *D sky130_fd_sc_hd__dfrtp_1
*I *459:CLK I *D sky130_fd_sc_hd__dfrtp_1
*I *471:CLK I *D sky130_fd_sc_hd__dfrtp_1
*I *399:A I *D sky130_fd_sc_hd__inv_2
*I *463:CLK I *D sky130_fd_sc_hd__dfrtp_1
*I *464:CLK I *D sky130_fd_sc_hd__dfrtp_1
*I *468:CLK I *D sky130_fd_sc_hd__dfrtp_1
*I *470:CLK I *D sky130_fd_sc_hd__dfrtp_1
*I *467:CLK I *D sky130_fd_sc_hd__dfrtp_1
*I *469:CLK I *D sky130_fd_sc_hd__dfrtp_1
*I *466:CLK I *D sky130_fd_sc_hd__dfrtp_1
*CAP
1 serial_clock 0.000480422
2 *458:CLK 0.000180902
3 *465:CLK 0
4 *472:CLK 0.00010908
5 *473:CLK 0
6 *461:CLK 0.000296449
7 *462:CLK 0.000207247
8 *201:A 4.00453e-05
9 *460:CLK 0
10 *459:CLK 0.00045367
11 *471:CLK 0.000350252
12 *399:A 0.000283903
13 *463:CLK 0
14 *464:CLK 8.86442e-05
15 *468:CLK 0.00035305
16 *470:CLK 5.282e-05
17 *467:CLK 0
18 *469:CLK 0.000409053
19 *466:CLK 5.56332e-05
20 *39:193 0.000644479
21 *39:180 0.000268345
22 *39:171 0.000262573
23 *39:158 0.0013024
24 *39:146 0.000895945
25 *39:138 0.000408809
26 *39:120 0.000634155
27 *39:118 0.000354524
28 *39:107 0.000947929
29 *39:86 0.00132315
30 *39:76 0.000815237
31 *39:63 0.000935763
32 *39:45 0.000290252
33 *39:30 0.000913463
34 *39:22 0.000758586
35 *39:13 0.00138135
36 *39:9 0.00182656
37 *399:A *413:B 0.00025977
38 *399:A *418:B 0.00016775
39 *399:A *494:A 2.78512e-05
40 *399:A *514:A 0.000137983
41 *399:A *522:A 8.11174e-05
42 *399:A *94:16 2.1806e-05
43 *399:A *114:14 2.58821e-05
44 *458:CLK *458:D 7.1724e-05
45 *458:CLK *521:A 0
46 *458:CLK *532:A 5.94634e-05
47 *459:CLK *459:D 7.23509e-05
48 *459:CLK *490:A 4.50349e-06
49 *461:CLK *449:CLK_N 0.000229332
50 *461:CLK *461:D 6.57032e-05
51 *461:CLK *530:A 0.000173804
52 *461:CLK *148:27 0.000102327
53 *461:CLK *152:14 0
54 *462:CLK *462:D 1.24368e-05
55 *462:CLK *475:D 0.000175664
56 *462:CLK *94:16 1.00527e-05
57 *464:CLK *464:D 1.85443e-05
58 *468:CLK *468:D 7.77751e-05
59 *468:CLK *488:A 5.52302e-05
60 *468:CLK *123:22 0.000416995
61 *468:CLK *163:18 3.69047e-06
62 *469:CLK *467:RESET_B 0
63 *469:CLK *469:D 0
64 *469:CLK *546:A 2.78576e-05
65 *469:CLK *43:169 0.000415752
66 *471:CLK *471:D 7.3237e-05
67 *471:CLK *494:A 0.000195738
68 *471:CLK *155:10 0.000196323
69 *472:CLK *463:D 2.68493e-05
70 *472:CLK *123:16 3.074e-05
71 *39:9 *416:B 0
72 *39:9 *458:D 3.88799e-05
73 *39:9 *521:A 0
74 *39:9 *43:5 0
75 *39:13 *458:D 1.40306e-05
76 *39:13 *521:A 6.05161e-06
77 *39:22 *466:D 6.12622e-06
78 *39:30 *504:A 0.000167988
79 *39:30 *43:9 0.000232741
80 *39:45 *467:RESET_B 4.96155e-05
81 *39:45 *504:A 7.77751e-05
82 *39:63 *466:D 3.19411e-05
83 *39:63 *504:A 5.03694e-05
84 *39:63 *43:9 0
85 *39:63 *163:18 8.03345e-05
86 *39:76 *504:A 1.46717e-05
87 *39:76 *43:9 0
88 *39:76 *123:16 0.000141393
89 *39:86 *437:A 2.05866e-05
90 *39:86 *43:9 4.47813e-05
91 *39:107 *437:A 4.79842e-05
92 *39:107 *463:D 1.32552e-05
93 *39:107 *464:D 0
94 *39:107 *149:50 0.000199934
95 *39:107 *169:10 0
96 *39:118 *116:14 0.000245745
97 *39:118 *116:26 2.28634e-05
98 *39:118 *123:16 0.00037018
99 *39:138 *123:16 6.37975e-05
100 *39:146 *123:16 0.000152418
101 *39:146 *145:24 0.000241502
102 *39:146 *160:28 6.94399e-06
103 *39:158 *490:A 0.000121179
104 *39:158 *515:A 3.79528e-05
105 *39:158 *525:A 8.31592e-05
106 *39:158 *115:22 5.33005e-05
107 *39:158 *134:14 6.07835e-05
108 *39:158 *145:24 0.000177821
109 *39:158 *156:28 0.000139373
110 *39:158 *160:28 4.74098e-05
111 *39:171 *460:D 3.41945e-05
112 *39:171 *490:A 0.000142535
113 *39:171 *152:14 9.46324e-05
114 *39:180 *460:D 4.1331e-06
115 *39:180 *152:14 9.21958e-05
116 *39:180 *159:18 0