*SPEF "ieee 1481-1999"
*DESIGN "gpio_logic_high"
*DATE "18:31:19 Monday June 16, 2025"
*VENDOR "The OpenROAD Project"
*PROGRAM "OpenROAD"
*VERSION "edf00dff99f6c40d67a30c0e22a8191c5d2ed9d6"
*DESIGN_FLOW "NAME_SCOPE LOCAL" "PIN_CAP NONE"
*DIVIDER /
*DELIMITER :
*BUS_DELIMITER []
*T_UNIT 1 NS
*C_UNIT 1 PF
*R_UNIT 1 OHM
*L_UNIT 1 HENRY

*NAME_MAP
*1 net1
*2 FILLER_0_3
*3 FILLER_0_6
*4 FILLER_0_9
*5 FILLER_1_3
*6 FILLER_1_9
*7 PHY_EDGE_ROW_0_Left_2
*8 PHY_EDGE_ROW_0_Right_0
*9 PHY_EDGE_ROW_1_Left_3
*10 PHY_EDGE_ROW_1_Right_1
*11 TAP_TAPCELL_ROW_0_4
*12 TAP_TAPCELL_ROW_1_5
*13 gpio_logic_high_1

*PORTS
gpio_logic1 O

*D_NET *1 0.0004035
*CONN
*P gpio_logic1 O
*I *13:HI O *D sky130_fd_sc_hd__conb_1
*CAP
1 gpio_logic1 0.00020175
2 *13:HI 0.00020175
*RES
1 *13:HI gpio_logic1 21.4339 
*END
