*SPEF "ieee 1481-1999"
*DESIGN "gpio_control_block_mgmt_monitor"
*DATE "21:20:44 Saturday June 14, 2025"
*VENDOR "The OpenROAD Project"
*PROGRAM "OpenROAD"
*VERSION "edf00dff99f6c40d67a30c0e22a8191c5d2ed9d6"
*DESIGN_FLOW "NAME_SCOPE LOCAL" "PIN_CAP NONE"
*DIVIDER /
*DELIMITER :
*BUS_DELIMITER []
*T_UNIT 1 NS
*C_UNIT 1 PF
*R_UNIT 1 OHM
*L_UNIT 1 HENRY

*NAME_MAP
*1 gpio_defaults[0]
*2 gpio_defaults[10]
*3 gpio_defaults[11]
*4 gpio_defaults[12]
*5 gpio_defaults[13]
*6 gpio_defaults[14]
*7 gpio_defaults[15]
*8 gpio_defaults[1]
*9 gpio_defaults[2]
*10 gpio_defaults[3]
*11 gpio_defaults[4]
*12 gpio_defaults[5]
*13 gpio_defaults[6]
*14 gpio_defaults[7]
*15 gpio_defaults[8]
*16 gpio_defaults[9]
*17 mgmt_gpio_in
*18 mgmt_gpio_oeb
*19 mgmt_gpio_out
*20 pad_gpio_ana_en
*21 pad_gpio_ana_pol
*22 pad_gpio_ana_sel
*23 pad_gpio_dm[0]
*24 pad_gpio_dm[1]
*25 pad_gpio_dm[2]
*26 pad_gpio_holdover
*27 pad_gpio_hys_trim
*28 pad_gpio_ib_mode_sel
*29 pad_gpio_in
*30 pad_gpio_inenb
*31 pad_gpio_out
*32 pad_gpio_outenb
*33 pad_gpio_slew_ctl[0]
*34 net44
*35 pad_gpio_slow_sel
*36 pad_gpio_vtrip_sel
*37 resetn
*38 resetn_out
*39 serial_clock
*40 serial_clock_out
*41 serial_data_in
*42 serial_data_out
*43 serial_load
*44 serial_load_out
*45 user_gpio_in
*46 user_gpio_oeb
*47 user_gpio_out
*52 _000_
*53 _001_
*54 _002_
*55 _003_
*56 _004_
*57 _005_
*58 _006_
*59 _007_
*60 _008_
*61 _009_
*62 _010_
*63 _011_
*64 _012_
*65 _013_
*66 _014_
*67 _015_
*68 _016_
*69 _017_
*70 _018_
*71 _019_
*72 _020_
*73 _021_
*74 _022_
*75 _023_
*76 _024_
*77 _025_
*78 _026_
*79 _027_
*80 _028_
*81 _029_
*82 _030_
*83 _031_
*84 _032_
*85 _033_
*86 _034_
*87 _035_
*88 _036_
*89 _037_
*90 _038_
*91 _039_
*92 _040_
*93 _041_
*94 _042_
*95 _043_
*96 _044_
*97 _045_
*98 _046_
*99 _047_
*100 _048_
*101 _049_
*102 _050_
*103 _051_
*104 _052_
*105 _053_
*106 _054_
*107 _055_
*108 _056_
*109 gpio_logic1
*110 gpio_slew_ctl
*111 mgmt_ena
*112 net1
*113 net10
*114 net11
*115 net12
*116 net13
*117 net14
*118 net15
*119 net16
*120 net17
*121 net18
*122 net19
*123 net2
*124 net20
*125 net21
*126 net22
*127 net23
*128 net24
*129 net25
*130 net26
*131 net27
*132 net28
*133 net29
*134 net3
*135 net30
*136 net31
*137 net32
*138 net33
*139 net34
*140 net35
*141 net36
*142 net37
*143 net38
*144 net39
*145 net4
*146 net40
*147 net41
*148 net42
*149 net43
*150 net45
*151 net46
*152 net47
*153 net48
*154 net49
*155 net5
*156 net50
*157 net51
*158 net52
*159 net53
*160 net54
*161 net55
*162 net56
*163 net57
*164 net58
*165 net59
*166 net6
*167 net60
*168 net61
*169 net62
*170 net63
*171 net64
*172 net65
*173 net66
*174 net67
*175 net68
*176 net69
*177 net7
*178 net70
*179 net71
*180 net72
*181 net8
*182 net9
*183 shift_register\[0\]
*184 shift_register\[10\]
*185 shift_register\[11\]
*186 shift_register\[12\]
*187 shift_register\[13\]
*188 shift_register\[14\]
*189 shift_register\[15\]
*190 shift_register\[1\]
*191 shift_register\[2\]
*192 shift_register\[3\]
*193 shift_register\[4\]
*194 shift_register\[5\]
*195 shift_register\[6\]
*196 shift_register\[7\]
*197 shift_register\[8\]
*198 shift_register\[9\]
*199 BUF\[0\]
*200 BUF\[1\]
*201 BUF\[2\]
*202 FILLER_0_23
*203 FILLER_0_35
*204 FILLER_0_47
*205 FILLER_0_49
*206 FILLER_0_57
*207 FILLER_0_77
*208 FILLER_10_15
*209 FILLER_10_27
*210 FILLER_10_29
*211 FILLER_10_3
*212 FILLER_10_37
*213 FILLER_10_70
*214 FILLER_10_80
*215 FILLER_10_90
*216 FILLER_11_25
*217 FILLER_11_47
*218 FILLER_11_57
*219 FILLER_11_9
*220 FILLER_12_22
*221 FILLER_12_29
*222 FILLER_12_3
*223 FILLER_12_45
*224 FILLER_12_53
*225 FILLER_12_67
*226 FILLER_12_90
*227 FILLER_13_3
*228 FILLER_13_40
*229 FILLER_13_52
*230 FILLER_13_57
*231 FILLER_13_74
*232 FILLER_14_19
*233 FILLER_14_35
*234 FILLER_14_83
*235 FILLER_14_90
*236 FILLER_15_24
*237 FILLER_15_3
*238 FILLER_15_34
*239 FILLER_15_61
*240 FILLER_15_90
*241 FILLER_16_18
*242 FILLER_16_90
*243 FILLER_17_55
*244 FILLER_17_57
*245 FILLER_18_14
*246 FILLER_18_29
*247 FILLER_18_59
*248 FILLER_18_90
*249 FILLER_19_43
*250 FILLER_19_90
*251 FILLER_1_23
*252 FILLER_1_29
*253 FILLER_1_66
*254 FILLER_1_72
*255 FILLER_1_77
*256 FILLER_1_85
*257 FILLER_20_29
*258 FILLER_20_3
*259 FILLER_20_83
*260 FILLER_20_90
*261 FILLER_21_19
*262 FILLER_21_62
*263 FILLER_22_29
*264 FILLER_22_90
*265 FILLER_23_3
*266 FILLER_23_90
*267 FILLER_2_28
*268 FILLER_2_40
*269 FILLER_2_44
*270 FILLER_2_57
*271 FILLER_2_91
*272 FILLER_3_23
*273 FILLER_3_31
*274 FILLER_3_90
*275 FILLER_4_15
*276 FILLER_4_27
*277 FILLER_4_29
*278 FILLER_4_3
*279 FILLER_4_35
*280 FILLER_4_80
*281 FILLER_4_90
*282 FILLER_5_15
*283 FILLER_5_27
*284 FILLER_5_3
*285 FILLER_5_57
*286 FILLER_5_63
*287 FILLER_6_17
*288 FILLER_6_25
*289 FILLER_6_29
*290 FILLER_6_37
*291 FILLER_6_66
*292 FILLER_6_9
*293 FILLER_6_90
*294 FILLER_7_23
*295 FILLER_7_35
*296 FILLER_7_47
*297 FILLER_7_57
*298 FILLER_8_19
*299 FILLER_8_27
*300 FILLER_8_29
*301 FILLER_8_41
*302 FILLER_8_90
*303 FILLER_9_18
*304 FILLER_9_30
*305 FILLER_9_34
*306 FILLER_9_55
*307 FILLER_9_57
*308 FILLER_9_6
*309 PHY_EDGE_ROW_0_2_Left_3
*310 PHY_EDGE_ROW_0_2_Right_27
*311 PHY_EDGE_ROW_10_Left_34
*312 PHY_EDGE_ROW_10_Right_13
*313 PHY_EDGE_ROW_11_Left_35
*314 PHY_EDGE_ROW_11_Right_14
*315 PHY_EDGE_ROW_12_Left_36
*316 PHY_EDGE_ROW_12_Right_15
*317 PHY_EDGE_ROW_13_Left_37
*318 PHY_EDGE_ROW_13_Right_16
*319 PHY_EDGE_ROW_14_Left_38
*320 PHY_EDGE_ROW_14_Right_17
*321 PHY_EDGE_ROW_15_Left_39
*322 PHY_EDGE_ROW_15_Right_18
*323 PHY_EDGE_ROW_16_Left_40
*324 PHY_EDGE_ROW_16_Right_19
*325 PHY_EDGE_ROW_17_Left_41
*326 PHY_EDGE_ROW_17_Right_20
*327 PHY_EDGE_ROW_18_Left_42
*328 PHY_EDGE_ROW_18_Right_21
*329 PHY_EDGE_ROW_19_Left_43
*330 PHY_EDGE_ROW_19_Right_22
*331 PHY_EDGE_ROW_1_2_Left_0
*332 PHY_EDGE_ROW_1_2_Right_4
*333 PHY_EDGE_ROW_20_Left_44
*334 PHY_EDGE_ROW_20_Right_23
*335 PHY_EDGE_ROW_21_Left_45
*336 PHY_EDGE_ROW_21_Right_24
*337 PHY_EDGE_ROW_22_Left_46
*338 PHY_EDGE_ROW_22_Right_25
*339 PHY_EDGE_ROW_23_Left_47
*340 PHY_EDGE_ROW_23_Right_26
*341 PHY_EDGE_ROW_2_2_Left_1
*342 PHY_EDGE_ROW_2_2_Right_5
*343 PHY_EDGE_ROW_3_2_Left_2
*344 PHY_EDGE_ROW_3_2_Right_6
*345 PHY_EDGE_ROW_4_Left_28
*346 PHY_EDGE_ROW_4_Right_7
*347 PHY_EDGE_ROW_5_Left_29
*348 PHY_EDGE_ROW_5_Right_8
*349 PHY_EDGE_ROW_6_Left_30
*350 PHY_EDGE_ROW_6_Right_9
*351 PHY_EDGE_ROW_7_Left_31
*352 PHY_EDGE_ROW_7_Right_10
*353 PHY_EDGE_ROW_8_Left_32
*354 PHY_EDGE_ROW_8_Right_11
*355 PHY_EDGE_ROW_9_Left_33
*356 PHY_EDGE_ROW_9_Right_12
*357 TAP_TAPCELL_ROW_0_2_84
*358 TAP_TAPCELL_ROW_0_2_85
*359 TAP_TAPCELL_ROW_10_61
*360 TAP_TAPCELL_ROW_10_62
*361 TAP_TAPCELL_ROW_11_63
*362 TAP_TAPCELL_ROW_12_64
*363 TAP_TAPCELL_ROW_12_65
*364 TAP_TAPCELL_ROW_13_66
*365 TAP_TAPCELL_ROW_14_67
*366 TAP_TAPCELL_ROW_14_68
*367 TAP_TAPCELL_ROW_15_69
*368 TAP_TAPCELL_ROW_16_70
*369 TAP_TAPCELL_ROW_16_71
*370 TAP_TAPCELL_ROW_17_72
*371 TAP_TAPCELL_ROW_18_73
*372 TAP_TAPCELL_ROW_18_74
*373 TAP_TAPCELL_ROW_19_75
*374 TAP_TAPCELL_ROW_1_2_48
*375 TAP_TAPCELL_ROW_20_76
*376 TAP_TAPCELL_ROW_20_77
*377 TAP_TAPCELL_ROW_21_78
*378 TAP_TAPCELL_ROW_22_79
*379 TAP_TAPCELL_ROW_22_80
*380 TAP_TAPCELL_ROW_23_81
*381 TAP_TAPCELL_ROW_23_82
*382 TAP_TAPCELL_ROW_23_83
*383 TAP_TAPCELL_ROW_2_2_49
*384 TAP_TAPCELL_ROW_3_2_50
*385 TAP_TAPCELL_ROW_4_51
*386 TAP_TAPCELL_ROW_4_52
*387 TAP_TAPCELL_ROW_4_53
*388 TAP_TAPCELL_ROW_5_54
*389 TAP_TAPCELL_ROW_6_55
*390 TAP_TAPCELL_ROW_6_56
*391 TAP_TAPCELL_ROW_7_57
*392 TAP_TAPCELL_ROW_8_58
*393 TAP_TAPCELL_ROW_8_59
*394 TAP_TAPCELL_ROW_9_60
*395 _057_
*396 _058_
*397 _059_
*398 _060_
*399 _061_
*400 _062_
*401 _063_
*402 _064_
*403 _065_
*404 _066_
*405 _067_
*406 _068_
*407 _069_
*408 _070_
*409 _071_
*410 _072_
*411 _073_
*412 _074_
*413 _075_
*414 _076_
*415 _077_
*416 _078_
*417 _079_
*418 _080_
*419 _081_
*420 _082_
*421 _083_
*422 _084_
*423 _085_
*424 _086_
*425 _087_
*426 _088_
*427 _089_
*428 _090_
*429 _091_
*430 _092_
*431 _093_
*432 _094_
*433 _095_
*434 _096_
*435 _097_
*436 _098_
*437 _099_
*438 _100_
*439 _101_
*440 _102_
*441 _103_
*442 _104_
*443 _105_
*444 _106_
*445 _107_
*446 _108_
*447 _109_
*448 _110_
*449 _111_
*450 _112_
*451 _113_
*452 _114_
*453 _115_
*454 _116_
*455 _117_
*456 _118_
*457 _119_
*458 _120_
*459 _121_
*460 _122_
*461 _123_
*462 _124_
*463 _125_
*464 _126_
*465 _127_
*466 _128_
*467 _129_
*468 _130_
*469 _131_
*470 _132_
*471 _133_
*472 _135_
*473 _136_
*474 fanout39
*475 fanout40
*476 fanout41
*477 fanout42
*478 fanout43
*479 gpio_control_block_mgmt_monitor_44
*480 gpio_logic_high
*481 hold1
*482 hold10
*483 hold11
*484 hold12
*485 hold13
*486 hold14
*487 hold15
*488 hold16
*489 hold17
*490 hold18
*491 hold19
*492 hold2
*493 hold20
*494 hold21
*495 hold22
*496 hold23
*497 hold24
*498 hold25
*499 hold26
*500 hold27
*501 hold28
*502 hold3
*503 hold4
*504 hold5
*505 hold6
*506 hold7
*507 hold8
*508 hold9
*509 input1
*510 input10
*511 input11
*512 input12
*513 input13
*514 input14
*515 input15
*516 input16
*517 input17
*518 input18
*519 input19
*520 input2
*521 input20
*522 input3
*523 input4
*524 input5
*525 input6
*526 input7
*527 input8
*528 input9
*529 output21
*530 output22
*531 output23
*532 output24
*533 output25
*534 output26
*535 output27
*536 output28
*537 output29
*538 output30
*539 output31
*540 output32
*541 output33
*542 output34
*543 output35
*544 output36
*545 output37
*546 output38

*PORTS
gpio_defaults[0] I
gpio_defaults[10] I
gpio_defaults[11] I
gpio_defaults[12] I
gpio_defaults[13] I
gpio_defaults[14] I
gpio_defaults[15] I
gpio_defaults[1] I
gpio_defaults[2] I
gpio_defaults[3] I
gpio_defaults[4] I
gpio_defaults[5] I
gpio_defaults[6] I
gpio_defaults[7] I
gpio_defaults[8] I
gpio_defaults[9] I
mgmt_gpio_in O
mgmt_gpio_oeb I
mgmt_gpio_out I
pad_gpio_ana_en O
pad_gpio_ana_pol O
pad_gpio_ana_sel O
pad_gpio_dm[0] O
pad_gpio_dm[1] O
pad_gpio_dm[2] O
pad_gpio_holdover O
pad_gpio_hys_trim O
pad_gpio_ib_mode_sel O
pad_gpio_in I
pad_gpio_inenb O
pad_gpio_out O
pad_gpio_outenb O
pad_gpio_slew_ctl[0] O
pad_gpio_slew_ctl[1] O
pad_gpio_slow_sel O
pad_gpio_vtrip_sel O
resetn I
resetn_out O
serial_clock I
serial_clock_out O
serial_data_in I
serial_data_out O
serial_load I
serial_load_out O
user_gpio_in O
user_gpio_oeb I
user_gpio_out I

*D_NET *1 0.00351062
*CONN
*P gpio_defaults[0] I
*I *504:A I *D sky130_fd_sc_hd__dlygate4sd3_1
*CAP
1 gpio_defaults[0] 0.000617251
2 *504:A 0.000617251
3 *504:A *483:A 0
4 *504:A *492:A 0
5 *504:A *507:A 0.000140921
6 *504:A *508:A 0.00151039
7 *504:A *511:A 0.000136432
8 *504:A *3:19 0.000302778
9 *504:A *114:12 3.40043e-05
10 *504:A *159:20 9.27866e-05
11 *504:A *162:20 5.88084e-05
*RES
1 gpio_defaults[0] *504:A 32.0143 
*END

*D_NET *2 0.00405258
*CONN
*P gpio_defaults[10] I
*I *482:A I *D sky130_fd_sc_hd__dlygate4sd3_1
*CAP
1 gpio_defaults[10] 0.00107435
2 *482:A 0.00107435
3 *482:A pad_gpio_ib_mode_sel 0.000593779
4 *482:A *445:RESET_B 0.000227532
5 *482:A *503:A 2.95781e-05
6 *482:A *513:A 5.71472e-05
7 *482:A *540:A 1.9964e-05
8 *482:A *3:19 0
9 *482:A *62:24 0.000674854
10 *482:A *153:18 0.000301024
*RES
1 gpio_defaults[10] *482:A 35.3714 
*END

*D_NET *3 0.00552021
*CONN
*P gpio_defaults[11] I
*I *484:A I *D sky130_fd_sc_hd__dlygate4sd3_1
*CAP
1 gpio_defaults[11] 0.00216317
2 *484:A 0
3 *3:19 0.00216317
4 *3:19 *483:A 0.000826205
5 *3:19 *4:19 3.70341e-05
6 *3:19 *162:20 2.78576e-05
7 *482:A *3:19 0
8 *504:A *3:19 0.000302778
*RES
1 gpio_defaults[11] *3:19 41.2857 
2 *3:19 *484:A 9.3 
*END

*D_NET *4 0.00648324
*CONN
*P gpio_defaults[12] I
*I *505:A I *D sky130_fd_sc_hd__dlygate4sd3_1
*CAP
1 gpio_defaults[12] 0.00254252
2 *505:A 0
3 *4:19 0.00254252
4 *4:19 pad_gpio_vtrip_sel 0.000122289
5 *4:19 *405:B 4.70388e-05
6 *4:19 *418:A 0.00072178
7 *4:19 *419:B 1.08413e-05
8 *4:19 *444:RESET_B 7.14469e-05
9 *4:19 *445:CLK_N 7.43578e-06
10 *4:19 *445:D 5.38242e-05
11 *4:19 *453:CLK_N 4.00679e-05
12 *4:19 *453:D 4.00679e-05
13 *4:19 *513:A 5.33005e-05
14 *4:19 *544:A 0.000113843
15 *4:19 *5:21 0
16 *4:19 *147:117 5.33005e-05
17 *4:19 *153:18 2.59355e-05
18 *3:19 *4:19 3.70341e-05
*RES
1 gpio_defaults[12] *4:19 45.8214 
2 *4:19 *505:A 9.3 
*END

*D_NET *5 0.00958681
*CONN
*P gpio_defaults[13] I
*I *524:A I *D sky130_fd_sc_hd__clkbuf_1
*CAP
1 gpio_defaults[13] 0.00199586
2 *524:A 0.000441002
3 *5:21 0.00243686
4 *524:A *442:SET_B 4.18796e-05
5 *524:A *459:D 2.72464e-05
6 *524:A *467:RESET_B 0
7 *524:A *468:CLK 0.000338497
8 *524:A *39:97 3.06466e-05
9 *524:A *39:105 0.000431864
10 *524:A *39:190 4.08637e-05
11 *524:A *114:12 0.000366312
12 *524:A *134:14 0.000642093
13 *524:A *162:20 8.11273e-05
14 *5:21 pad_gpio_out 0.000349834
15 *5:21 *397:B 0.000245086
16 *5:21 *407:B 0.0002052
17 *5:21 *415:A 1.58163e-05
18 *5:21 *417:B 0.000146592
19 *5:21 *419:B 0.000417444
20 *5:21 *442:RESET_B 3.5479e-06
21 *5:21 *449:CLK_N 0.000105297
22 *5:21 *449:D 0.000278558
23 *5:21 *449:RESET_B 3.18676e-05
24 *5:21 *449:SET_B 3.14178e-05
25 *5:21 *453:RESET_B 6.05308e-05
26 *5:21 *494:A 2.78576e-05
27 *5:21 *525:A 0.00010995
28 *5:21 *535:A 0.000181591
29 *5:21 *537:A 0.000121978
30 *5:21 *62:24 7.5779e-05
31 *5:21 *149:60 2.59996e-05
32 *5:21 *182:30 0.000278212
33 *4:19 *5:21 0
*RES
1 gpio_defaults[13] *5:21 45.125 
2 *5:21 *524:A 26.8893 
*END

*D_NET *7 0.00561095
*CONN
*P gpio_defaults[15] I
*I *525:A I *D sky130_fd_sc_hd__clkbuf_1
*CAP
1 gpio_defaults[15] 0.00200421
2 *525:A 0.00200421
3 *525:A pad_gpio_ib_mode_sel 0
4 *525:A *400:A_N 1.98839e-05
5 *525:A *407:B 4.58324e-05
6 *525:A *417:B 7.34705e-05
7 *525:A *444:SET_B 7.23398e-05
8 *525:A *453:SET_B 4.17375e-05
9 *525:A *537:A 0.00038852
10 *525:A *544:A 1.17927e-05
11 *525:A *62:24 3.52194e-05
12 *525:A *147:84 0.000249844
13 *525:A *147:101 0.000351286
14 *525:A *166:8 0.000136951
15 *525:A *180:37 6.57032e-05
16 *5:21 *525:A 0.00010995
*RES
1 gpio_defaults[15] *525:A 44.7821 
*END

*D_NET *9 0.00413736
*CONN
*P gpio_defaults[2] I
*I *492:A I *D sky130_fd_sc_hd__dlygate4sd3_1
*CAP
1 gpio_defaults[2] 0.00147342
2 *492:A 0.00147342
3 *492:A *444:CLK_N 0.000295619
4 *492:A *445:RESET_B 0
5 *492:A *446:D 0
6 *492:A *481:A 0.000116575
7 *492:A *483:A 0.000151069
8 *492:A *506:A 1.98057e-05
9 *492:A *62:24 2.28499e-05
10 *492:A *114:12 0
11 *492:A *177:14 0.000584593
12 *504:A *492:A 0
*RES
1 gpio_defaults[2] *492:A 36.3 
*END

*D_NET *10 0.00518895
*CONN
*P gpio_defaults[3] I
*I *481:A I *D sky130_fd_sc_hd__dlygate4sd3_1
*CAP
1 gpio_defaults[3] 0.00161841
2 *481:A 0.00161841
3 *481:A *523:A 0
4 *481:A *11:21 8.00951e-05
5 *481:A *153:18 0.00162013
6 *481:A *159:20 3.74403e-05
7 *481:A *177:14 9.78828e-05
8 *492:A *481:A 0.000116575
*RES
1 gpio_defaults[3] *481:A 46.6214 
*END

*D_NET *11 0.00656104
*CONN
*P gpio_defaults[4] I
*I *502:A I *D sky130_fd_sc_hd__dlygate4sd3_1
*CAP
1 gpio_defaults[4] 0.00169875
2 *502:A 0
3 *11:21 0.00169875
4 *11:21 *400:A_N 7.80714e-06
5 *11:21 *400:B 4.66511e-05
6 *11:21 *426:B 0.000311887
7 *11:21 *444:CLK_N 0
8 *11:21 *446:SET_B 5.54506e-05
9 *11:21 *449:D 3.10029e-05
10 *11:21 *506:A 0.000589555
11 *11:21 *540:A 0.000413613
12 *11:21 *43:169 0.000428912
13 *11:21 *43:178 0.0001819
14 *11:21 *136:10 0.000847779
15 *11:21 *153:18 9.88371e-05
16 *11:21 *177:14 7.00547e-05
17 *11:21 *189:10 0
18 *481:A *11:21 8.00951e-05
*RES
1 gpio_defaults[4] *11:21 47.9643 
2 *11:21 *502:A 9.3 
*END

*D_NET *12 0.00339357
*CONN
*P gpio_defaults[5] I
*I *506:A I *D sky130_fd_sc_hd__dlygate4sd3_1
*CAP
1 gpio_defaults[5] 0.00116971
2 *506:A 0.00116971
3 *506:A *446:CLK_N 1.92905e-05
4 *506:A *446:SET_B 7.83659e-05
5 *506:A *507:A 7.22589e-05
6 *506:A *526:A 6.08479e-05
7 *506:A *62:24 0.000213083
8 *506:A *148:112 9.33978e-07
9 *492:A *506:A 1.98057e-05
10 *11:21 *506:A 0.000589555
*RES
1 gpio_defaults[5] *506:A 33.2286 
*END

*D_NET *13 0.00239288
*CONN
*P gpio_defaults[6] I
*I *507:A I *D sky130_fd_sc_hd__dlygate4sd3_1
*CAP
1 gpio_defaults[6] 0.000652061
2 *507:A 0.000652061
3 *507:A pad_gpio_outenb 0.00017084
4 *507:A *508:A 0.000133861
5 *507:A *526:A 0.000108235
6 *507:A *114:12 0.000170955
7 *507:A *177:14 0.000291688
8 *504:A *507:A 0.000140921
9 *506:A *507:A 7.22589e-05
*RES
1 gpio_defaults[6] *507:A 28.3357 
*END

*D_NET *14 0.00631287
*CONN
*P gpio_defaults[7] I
*I *508:A I *D sky130_fd_sc_hd__dlygate4sd3_1
*CAP
1 gpio_defaults[7] 0.00200695
2 *508:A 0.00200695
3 *508:A pad_gpio_outenb 0.000598818
4 *508:A *483:A 2.69965e-05
5 *508:A *159:20 2.89114e-05
6 *504:A *508:A 0.00151039
7 *507:A *508:A 0.000133861
*RES
1 gpio_defaults[7] *508:A 42.3 
*END

*D_NET *15 0.00233041
*CONN
*P gpio_defaults[8] I
*I *483:A I *D sky130_fd_sc_hd__dlygate4sd3_1
*CAP
1 gpio_defaults[8] 0.000628546
2 *483:A 0.000628546
3 *483:A *503:A 6.90489e-05
4 *483:A *541:A 0
5 *483:A *114:12 0
6 *492:A *483:A 0.000151069
7 *504:A *483:A 0
8 *508:A *483:A 2.69965e-05
9 *3:19 *483:A 0.000826205
*RES
1 gpio_defaults[8] *483:A 36.8714 
*END

*D_NET *16 0.00149708
*CONN
*P gpio_defaults[9] I
*I *503:A I *D sky130_fd_sc_hd__dlygate4sd3_1
*CAP
1 gpio_defaults[9] 0.000614046
2 *503:A 0.000614046
3 *503:A pad_gpio_outenb 4.94382e-05
4 *503:A *526:A 6.76254e-05
5 *503:A *177:14 5.33005e-05
6 *482:A *503:A 2.95781e-05
7 *483:A *503:A 6.90489e-05
*RES
1 gpio_defaults[9] *503:A 23.2286 
*END

*D_NET *17 0.00092407
*CONN
*P mgmt_gpio_in O
*I *529:X O *D sky130_fd_sc_hd__buf_12
*CAP
1 mgmt_gpio_in 0.000462035
2 *529:X 0.000462035
3 mgmt_gpio_in *516:A 0
4 mgmt_gpio_in *518:A 0
5 mgmt_gpio_in *43:11 0
*RES
1 *529:X mgmt_gpio_in 24.3862 
*END

*D_NET *18 0.000905225
*CONN
*P mgmt_gpio_oeb I
*I *515:A I *D sky130_fd_sc_hd__clkbuf_1
*CAP
1 mgmt_gpio_oeb 0.000357587
2 *515:A 0.000357587
3 *515:A *412:A1 0.000190051
4 *515:A *516:A 0
5 *515:A *521:A 0
6 *515:A *116:24 0
*RES
1 mgmt_gpio_oeb *515:A 20.392 
*END

*D_NET *19 0.000548447
*CONN
*P mgmt_gpio_out I
*I *516:A I *D sky130_fd_sc_hd__clkbuf_1
*CAP
1 mgmt_gpio_out 0.000274223
2 *516:A 0.000274223
3 *516:A *43:11 0
4 mgmt_gpio_in *516:A 0
5 *515:A *516:A 0
*RES
1 mgmt_gpio_out *516:A 20.7797 
*END

*D_NET *20 0.00289295
*CONN
*P pad_gpio_ana_en O
*I *530:X O *D sky130_fd_sc_hd__buf_12
*CAP
1 pad_gpio_ana_en 0.000965467
2 *530:X 0.000965467
3 pad_gpio_ana_en pad_gpio_dm[0] 0
4 pad_gpio_ana_en pad_gpio_dm[1] 0
5 pad_gpio_ana_en pad_gpio_slow_sel 0
6 pad_gpio_ana_en *421:B 0.000144129
7 pad_gpio_ana_en *530:A 0.000135028
8 pad_gpio_ana_en *120:10 0.000352505
9 pad_gpio_ana_en *134:20 0.000330356
*RES
1 *530:X pad_gpio_ana_en 34.3352 
*END

*D_NET *21 0.00135592
*CONN
*P pad_gpio_ana_pol O
*I *531:X O *D sky130_fd_sc_hd__buf_12
*CAP
1 pad_gpio_ana_pol 0.000464889
2 *531:X 0.000438118
3 *21:15 2.67704e-05
4 pad_gpio_ana_pol pad_gpio_slew_ctl[0] 0
5 pad_gpio_ana_pol *425:B 0.000139323
6 pad_gpio_ana_pol *452:RESET_B 2.976e-05
7 pad_gpio_ana_pol *110:18 9.41642e-05
8 pad_gpio_ana_pol *134:20 1.30607e-05
9 pad_gpio_ana_pol *146:68 0.000129952
10 pad_gpio_ana_pol *146:79 1.98839e-05
11 *21:15 pad_gpio_inenb 0
12 *21:15 *33:15 0
*RES
1 *531:X pad_gpio_ana_pol 25.4154 
2 pad_gpio_ana_pol *21:15 0.0595333 
*END

*D_NET *22 0.00162622
*CONN
*P pad_gpio_ana_sel O
*I *532:X O *D sky130_fd_sc_hd__buf_12
*CAP
1 pad_gpio_ana_sel 0.000662957
2 *532:X 0.000662957
3 pad_gpio_ana_sel pad_gpio_inenb 0
4 pad_gpio_ana_sel pad_gpio_slew_ctl[1] 0
5 pad_gpio_ana_sel *470:RESET_B 5.33334e-05
6 pad_gpio_ana_sel *528:A 2.28541e-05
7 pad_gpio_ana_sel *532:A 0.000128154
8 pad_gpio_ana_sel *182:30 9.59623e-05
*RES
1 *532:X pad_gpio_ana_sel 23.1975 
*END

*D_NET *23 0.0015843
*CONN
*P pad_gpio_dm[0] O
*I *533:X O *D sky130_fd_sc_hd__buf_12
*CAP
1 pad_gpio_dm[0] 0.000676763
2 *533:X 0.000676763
3 pad_gpio_dm[0] *420:B 0
4 pad_gpio_dm[0] *447:SET_B 6.2169e-06
5 pad_gpio_dm[0] *533:A 0.000129868
6 pad_gpio_dm[0] *33:15 0
7 pad_gpio_dm[0] *123:26 9.46929e-05
8 pad_gpio_ana_en pad_gpio_dm[0] 0
*RES
1 *533:X pad_gpio_dm[0] 22.5202 
*END

*D_NET *24 0.00471192
*CONN
*P pad_gpio_dm[1] O
*I *534:X O *D sky130_fd_sc_hd__buf_12
*CAP
1 pad_gpio_dm[1] 0.00215567
2 *534:X 0.00215567
3 pad_gpio_dm[1] *448:RESET_B 0.000160489
4 pad_gpio_dm[1] *463:D 6.5185e-05
5 pad_gpio_dm[1] *497:A 0
6 pad_gpio_dm[1] *534:A 9.13455e-05
7 pad_gpio_dm[1] *35:15 0
8 pad_gpio_dm[1] *116:24 8.35642e-05
9 pad_gpio_ana_en pad_gpio_dm[1] 0
*RES
1 *534:X pad_gpio_dm[1] 27.5202 
*END

*D_NET *25 0.00150042
*CONN
*P pad_gpio_dm[2] O
*I *535:X O *D sky130_fd_sc_hd__buf_12
*CAP
1 pad_gpio_dm[2] 0.000557412
2 *535:X 0.000530642
3 *25:15 2.67704e-05
4 pad_gpio_dm[2] *397:A_N 0.000138579
5 pad_gpio_dm[2] *397:B 1.28809e-05
6 pad_gpio_dm[2] *449:SET_B 0.000139975
7 pad_gpio_dm[2] *43:178 9.41642e-05
8 *25:15 pad_gpio_holdover 0
9 *25:15 *27:15 0
*RES
1 *535:X pad_gpio_dm[2] 26.3261 
2 pad_gpio_dm[2] *25:15 0.0595333 
*END

*D_NET *26 0.00142616
*CONN
*P pad_gpio_holdover O
*I *536:X O *D sky130_fd_sc_hd__buf_12
*CAP
1 pad_gpio_holdover 0.000607914
2 *536:X 0.000607914
3 pad_gpio_holdover pad_gpio_out 0
4 pad_gpio_holdover *437:A 0.000137457
5 pad_gpio_holdover *449:RESET_B 0
6 pad_gpio_holdover *449:SET_B 1.94879e-05
7 pad_gpio_holdover *453:RESET_B 5.33882e-05
8 *25:15 pad_gpio_holdover 0
*RES
1 *536:X pad_gpio_holdover 20.2172 
*END

*D_NET *27 0.00102458
*CONN
*P pad_gpio_hys_trim O
*I *537:X O *D sky130_fd_sc_hd__buf_12
*CAP
1 pad_gpio_hys_trim 0.000485638
2 *537:X 0.000463388
3 *27:15 2.22503e-05
4 pad_gpio_hys_trim *424:B 5.33005e-05
5 pad_gpio_hys_trim *427:A 0
6 pad_gpio_hys_trim *147:40 0
7 *27:15 pad_gpio_slew_ctl[1] 0
8 *25:15 *27:15 0
*RES
1 *537:X pad_gpio_hys_trim 24.8618 
2 pad_gpio_hys_trim *27:15 0.0595333 
*END

*D_NET *28 0.00329266
*CONN
*P pad_gpio_ib_mode_sel O
*I *538:X O *D sky130_fd_sc_hd__buf_12
*CAP
1 pad_gpio_ib_mode_sel 0.000686464
2 *538:X 0.000668734
3 *28:19 1.77301e-05
4 pad_gpio_ib_mode_sel pad_gpio_outenb 0
5 pad_gpio_ib_mode_sel *419:A 1.00733e-05
6 pad_gpio_ib_mode_sel *538:A 9.41642e-05
7 pad_gpio_ib_mode_sel *540:A 0.000262504
8 pad_gpio_ib_mode_sel *62:24 0.000360059
9 pad_gpio_ib_mode_sel *147:101 6.595e-05
10 pad_gpio_ib_mode_sel *147:103 2.89016e-05
11 pad_gpio_ib_mode_sel *147:117 0.000504296
12 *28:19 pad_gpio_vtrip_sel 0
13 *28:19 *32:15 0
14 *482:A pad_gpio_ib_mode_sel 0.000593779
15 *525:A pad_gpio_ib_mode_sel 0
*RES
1 *538:X pad_gpio_ib_mode_sel 33.7546 
2 pad_gpio_ib_mode_sel *28:19 0.0595333 
*END

*D_NET *29 0.000697943
*CONN
*P pad_gpio_in I
*I *517:A I *D sky130_fd_sc_hd__buf_1
*CAP
1 pad_gpio_in 0.000348971
2 *517:A 0.000348971
3 *517:A *35:15 0
*RES
1 pad_gpio_in *517:A 19.8001 
*END

*D_NET *30 0.00158538
*CONN
*P pad_gpio_inenb O
*I *539:X O *D sky130_fd_sc_hd__buf_12
*CAP
1 pad_gpio_inenb 0.000561654
2 *539:X 0.000561654
3 pad_gpio_inenb *425:B 8.87411e-05
4 pad_gpio_inenb *134:20 4.18796e-05
5 pad_gpio_inenb *146:79 0.000331449
6 pad_gpio_ana_sel pad_gpio_inenb 0
7 *21:15 pad_gpio_inenb 0
*RES
1 *539:X pad_gpio_inenb 23.8907 
*END

*D_NET *31 0.00274229
*CONN
*P pad_gpio_out O
*I *540:X O *D sky130_fd_sc_hd__buf_12
*CAP
1 pad_gpio_out 0.000643166
2 *540:X 0.000643166
3 pad_gpio_out pad_gpio_vtrip_sel 0.000242283
4 pad_gpio_out *419:B 0.000206326
5 pad_gpio_out *444:RESET_B 0.000137179
6 pad_gpio_out *444:SET_B 0.000100831
7 pad_gpio_out *147:117 0.000222666
8 pad_gpio_out *182:30 0.000196839
9 pad_gpio_holdover pad_gpio_out 0
10 *5:21 pad_gpio_out 0.000349834
*RES
1 *540:X pad_gpio_out 28.1069 
*END

*D_NET *32 0.00341576
*CONN
*P pad_gpio_outenb O
*I *541:X O *D sky130_fd_sc_hd__buf_12
*CAP
1 pad_gpio_outenb 0.00105593
2 *541:X 0.0010382
3 *32:15 1.77301e-05
4 pad_gpio_outenb pad_gpio_vtrip_sel 0.00014904
5 pad_gpio_outenb *419:A 1.98839e-05
6 pad_gpio_outenb *419:B 5.47001e-05
7 pad_gpio_outenb *526:A 0.000261175
8 pad_gpio_ib_mode_sel pad_gpio_outenb 0
9 *503:A pad_gpio_outenb 4.94382e-05
10 *507:A pad_gpio_outenb 0.00017084
11 *508:A pad_gpio_outenb 0.000598818
12 *28:19 *32:15 0
*RES
1 *541:X pad_gpio_outenb 35.6832 
2 pad_gpio_outenb *32:15 0.0595333 
*END

*D_NET *33 0.00150857
*CONN
*P pad_gpio_slew_ctl[0] O
*I *542:X O *D sky130_fd_sc_hd__buf_12
*CAP
1 pad_gpio_slew_ctl[0] 0.000721431
2 *542:X 0.000699181
3 *33:15 2.22503e-05
4 pad_gpio_slew_ctl[0] *539:A 6.57032e-05
5 pad_gpio_ana_pol pad_gpio_slew_ctl[0] 0
6 pad_gpio_dm[0] *33:15 0
7 *21:15 *33:15 0
*RES
1 *542:X pad_gpio_slew_ctl[0] 28.0761 
2 pad_gpio_slew_ctl[0] *33:15 0.0595333 
*END

*D_NET *34 0.00232158
*CONN
*P pad_gpio_slew_ctl[1] O
*I *479:LO O *D sky130_fd_sc_hd__conb_1
*CAP
1 pad_gpio_slew_ctl[1] 0.00112659
2 *479:LO 0.00112659
3 pad_gpio_slew_ctl[1] *424:B 3.69047e-06
4 pad_gpio_slew_ctl[1] *495:A 2.59355e-05
5 pad_gpio_slew_ctl[1] *137:20 3.87787e-05
6 pad_gpio_ana_sel pad_gpio_slew_ctl[1] 0
7 *27:15 pad_gpio_slew_ctl[1] 0
*RES
1 *479:LO pad_gpio_slew_ctl[1] 22.0093 
*END

*D_NET *35 0.0040723
*CONN
*P pad_gpio_slow_sel O
*I *543:X O *D sky130_fd_sc_hd__buf_12
*CAP
1 pad_gpio_slow_sel 0.00103883
2 *543:X 0.0010211
3 *35:15 1.77301e-05
4 pad_gpio_slow_sel *408:A_N 0.000258165
5 pad_gpio_slow_sel *408:B 2.77366e-05
6 pad_gpio_slow_sel *421:A 0.00014211
7 pad_gpio_slow_sel *421:B 4.5632e-05
8 pad_gpio_slow_sel *443:SET_B 6.78212e-05
9 pad_gpio_slow_sel *448:RESET_B 0.000430687
10 pad_gpio_slow_sel *490:A 0.000760876
11 pad_gpio_slow_sel *543:A 0.000261609
12 pad_gpio_ana_en pad_gpio_slow_sel 0
13 pad_gpio_dm[1] *35:15 0
14 *517:A *35:15 0
*RES
1 *543:X pad_gpio_slow_sel 41.6296 
2 pad_gpio_slow_sel *35:15 0.0595333 
*END

*D_NET *36 0.00277506
*CONN
*P pad_gpio_vtrip_sel O
*I *544:X O *D sky130_fd_sc_hd__buf_12
*CAP
1 pad_gpio_vtrip_sel 0.000851478
2 *544:X 0.000851478
3 pad_gpio_vtrip_sel *419:A 0.000152199
4 pad_gpio_vtrip_sel *419:B 4.16427e-05
5 pad_gpio_vtrip_sel *444:RESET_B 1.02366e-05
6 pad_gpio_vtrip_sel *453:RESET_B 0.000176856
7 pad_gpio_vtrip_sel *117:14 3.63266e-05
8 pad_gpio_vtrip_sel *182:30 0.000141227
9 pad_gpio_out pad_gpio_vtrip_sel 0.000242283
10 pad_gpio_outenb pad_gpio_vtrip_sel 0.00014904
11 *4:19 pad_gpio_vtrip_sel 0.000122289
12 *28:19 pad_gpio_vtrip_sel 0
*RES
1 *544:X pad_gpio_vtrip_sel 28.9475 
*END

*D_NET *37 0.00653986
*CONN
*P resetn I
*I *200:A I *D sky130_fd_sc_hd__clkbuf_8
*I *478:A I *D sky130_fd_sc_hd__clkbuf_2
*CAP
1 resetn 0.00105171
2 *200:A 0.00102014
3 *478:A 0
4 *37:17 0.00207185
5 *200:A *410:A_N 0.000191309
6 *200:A *414:B 8.70269e-05
7 *200:A *455:D 1.91418e-05
8 *200:A *477:A 0.000371257
9 *200:A *43:26 0.000119999
10 *200:A *116:24 0
11 *200:A *143:12 0.000548704
12 *200:A *148:8 0.000107416
13 *200:A *159:20 0.000209212
14 *200:A *178:10 0.000147195
15 *37:17 *39:9 0.000177184
16 *37:17 *43:11 0
17 *37:17 *116:24 4.51902e-05
18 *37:17 *143:12 0.000372522
*RES
1 resetn *37:17 23.2677 
2 *37:17 *478:A 13.8 
3 *37:17 *200:A 38.7464 
*END

*D_NET *38 0.000514214
*CONN
*P resetn_out O
*I *200:X O *D sky130_fd_sc_hd__clkbuf_8
*CAP
1 resetn_out 0.000257107
2 *200:X 0.000257107
3 resetn_out serial_clock_out 0
4 resetn_out serial_load_out 0
5 resetn_out user_gpio_in 0
*RES
1 *200:X resetn_out 20.2797 
*END

*D_NET *39 0.0241364
*CONN
*P serial_clock I
*I *454:CLK I *D sky130_fd_sc_hd__dfrtp_1
*I *462:CLK I *D sky130_fd_sc_hd__dfrtp_1
*I *460:CLK I *D sky130_fd_sc_hd__dfrtp_1
*I *467:CLK I *D sky130_fd_sc_hd__dfrtp_1
*I *468:CLK I *D sky130_fd_sc_hd__dfrtp_1
*I *458:CLK I *D sky130_fd_sc_hd__dfrtp_1
*I *457:CLK I *D sky130_fd_sc_hd__dfrtp_1
*I *201:A I *D sky130_fd_sc_hd__clkbuf_8
*I *456:CLK I *D sky130_fd_sc_hd__dfrtp_1
*I *455:CLK I *D sky130_fd_sc_hd__dfrtp_1
*I *396:A I *D sky130_fd_sc_hd__inv_2
*I *469:CLK I *D sky130_fd_sc_hd__dfrtp_1
*I *459:CLK I *D sky130_fd_sc_hd__dfrtp_1
*I *461:CLK I *D sky130_fd_sc_hd__dfrtp_1
*I *466:CLK I *D sky130_fd_sc_hd__dfrtp_1
*I *464:CLK I *D sky130_fd_sc_hd__dfrtp_1
*I *463:CLK I *D sky130_fd_sc_hd__dfrtp_1
*I *465:CLK I *D sky130_fd_sc_hd__dfrtp_1
*CAP
1 serial_clock 0.000419105
2 *454:CLK 0.000194724
3 *462:CLK 3.78541e-05
4 *460:CLK 0.00031628
5 *467:CLK 0.0002786
6 *468:CLK 0.000173484
7 *458:CLK 0.000211243
8 *457:CLK 0.000326241
9 *201:A 5.6032e-05
10 *456:CLK 8.74893e-05
11 *455:CLK 0.000235111
12 *396:A 2.43689e-05
13 *469:CLK 0
14 *459:CLK 0
15 *461:CLK 0
16 *466:CLK 0
17 *464:CLK 0.000617091
18 *463:CLK 0
19 *465:CLK 0.00036903
20 *39:190 0.000479702
21 *39:166 0.000921082
22 *39:151 0.000502577
23 *39:140 0.000301945
24 *39:125 0.00114778
25 *39:114 0.000955768
26 *39:105 0.000488265
27 *39:97 0.000582517
28 *39:86 0.000534993
29 *39:73 0.000672559
30 *39:69 0.00135366
31 *39:41 0.000637259
32 *39:34 0.000162096
33 *39:21 0.00105201
34 *39:15 0.00120399
35 *39:13 0.000841113
36 *39:9 0.00141709
37 *201:A *43:38 5.03772e-05
38 *396:A *512:A 9.35228e-06
39 *454:CLK *518:A 0
40 *454:CLK *43:11 0.000363625
41 *455:CLK *455:D 9.0435e-05
42 *456:CLK *199:A 1.98839e-05
43 *456:CLK *43:32 2.59355e-05
44 *457:CLK *418:B 9.31011e-05
45 *457:CLK *457:D 2.89114e-05
46 *457:CLK *471:RESET_B 0.000102056
47 *457:CLK *523:A 2.11543e-05
48 *457:CLK *148:133 2.11419e-05
49 *458:CLK *458:D 0
50 *458:CLK *471:CLK 1.85586e-05
51 *464:CLK *464:D 5.45298e-05
52 *464:CLK *474:A 3.4455e-05
53 *464:CLK *497:A 0
54 *464:CLK *43:90 0
55 *464:CLK *116:24 0
56 *464:CLK *123:26 9.46929e-05
57 *465:CLK *438:A 0.00041112
58 *465:CLK *465:D 3.82858e-05
59 *467:CLK *402:A_N 7.20884e-05
60 *467:CLK *467:D 7.02611e-05
61 *467:CLK *493:A 5.47047e-05
62 *467:CLK *527:A 0.000277173
63 *467:CLK *134:14 2.14658e-05
64 *467:CLK *155:16 0.000200346
65 *468:CLK *415:A 6.87975e-06
66 *468:CLK *467:RESET_B 4.60232e-06
67 *468:CLK *493:A 0.000294368
68 *39:9 *43:11 0.000188336
69 *39:9 *116:24 0
70 *39:21 *472:A 0
71 *39:21 *501:A 5.62995e-05
72 *39:34 *428:A 7.32955e-05
73 *39:34 *438:A 0.000112995
74 *39:34 *463:RESET_B 2.29097e-05
75 *39:34 *144:36 0.000104295
76 *39:41 *428:A 5.33334e-05
77 *39:41 *144:36 3.48705e-05
78 *39:86 *460:D 0.000196577
79 *39:86 *43:76 9.88136e-05
80 *39:86 *43:82 7.8327e-05
81 *39:86 *123:20 4.48428e-05
82 *39:86 *134:14 6.17071e-05
83 *39:86 *170:10 0.000220448
84 *39:97 *459:D 0.00022711
85 *39:97 *43:74 0.000228725
86 *39:97 *43:76 5.80706e-06
87 *39:97 *134:14 2.74584e-05
88 *39:97 *170:10 0.000117896
89 *39:105 *527:A 0.000188801
90 *39:105 *115:24 4.60232e-06
91 *39:105 *162:20 0.000193565
92 *39:114 *414:A 0.000177296
93 *39:114 *512:A 1.58163e-05
94 *39:114 *123:20 6.8012e-05
95 *39:125 *471:CLK 0.00010063