*SPEF "ieee 1481-1999"
*DESIGN "gpio_control_block"
*DATE "18:36:29 Monday June 16, 2025"
*VENDOR "The OpenROAD Project"
*PROGRAM "OpenROAD"
*VERSION "edf00dff99f6c40d67a30c0e22a8191c5d2ed9d6"
*DESIGN_FLOW "NAME_SCOPE LOCAL" "PIN_CAP NONE"
*DIVIDER /
*DELIMITER :
*BUS_DELIMITER []
*T_UNIT 1 NS
*C_UNIT 1 PF
*R_UNIT 1 OHM
*L_UNIT 1 HENRY

*NAME_MAP
*1 gpio_defaults[0]
*2 gpio_defaults[10]
*3 gpio_defaults[11]
*4 gpio_defaults[12]
*5 gpio_defaults[13]
*6 gpio_defaults[14]
*7 gpio_defaults[15]
*8 gpio_defaults[1]
*9 gpio_defaults[2]
*10 gpio_defaults[3]
*11 gpio_defaults[4]
*12 gpio_defaults[5]
*13 gpio_defaults[6]
*14 gpio_defaults[7]
*15 gpio_defaults[8]
*16 gpio_defaults[9]
*17 mgmt_gpio_in
*18 mgmt_gpio_oeb
*19 mgmt_gpio_out
*20 pad_gpio_ana_en
*21 pad_gpio_ana_pol
*22 pad_gpio_ana_sel
*23 pad_gpio_dm[0]
*24 pad_gpio_dm[1]
*25 pad_gpio_dm[2]
*26 pad_gpio_holdover
*27 pad_gpio_hys_trim
*28 pad_gpio_ib_mode_sel
*29 pad_gpio_in
*30 pad_gpio_inenb
*31 pad_gpio_out
*32 pad_gpio_outenb
*33 pad_gpio_slew_ctl[0]
*34 net44
*35 pad_gpio_slow_sel
*36 pad_gpio_vtrip_sel
*37 resetn
*38 resetn_out
*39 serial_clock
*40 serial_clock_out
*41 serial_data_in
*42 serial_data_out
*43 serial_load
*44 serial_load_out
*45 user_gpio_in
*46 user_gpio_oeb
*47 user_gpio_out
*52 _000_
*53 _001_
*54 _002_
*55 _003_
*56 _004_
*57 _005_
*58 _006_
*59 _007_
*60 _008_
*61 _009_
*62 _010_
*63 _011_
*64 _012_
*65 _013_
*66 _014_
*67 _015_
*68 _016_
*69 _017_
*70 _018_
*71 _019_
*72 _020_
*73 _021_
*74 _022_
*75 _023_
*76 _024_
*77 _025_
*78 _026_
*79 _027_
*80 _028_
*81 _029_
*82 _030_
*83 _031_
*84 _032_
*85 _033_
*86 _034_
*87 _035_
*88 _036_
*89 _037_
*90 _038_
*91 _039_
*92 _040_
*93 _041_
*94 _042_
*95 _043_
*96 _044_
*97 _045_
*98 _046_
*99 _047_
*100 _048_
*101 _049_
*102 _050_
*103 _051_
*104 _052_
*105 _053_
*106 _054_
*107 _055_
*108 _056_
*109 gpio_logic1
*110 gpio_slew_ctl
*111 mgmt_ena
*112 net1
*113 net10
*114 net11
*115 net12
*116 net13
*117 net14
*118 net15
*119 net16
*120 net17
*121 net18
*122 net19
*123 net2
*124 net20
*125 net21
*126 net22
*127 net23
*128 net24
*129 net25
*130 net26
*131 net27
*132 net28
*133 net29
*134 net3
*135 net30
*136 net31
*137 net32
*138 net33
*139 net34
*140 net35
*141 net36
*142 net37
*143 net38
*144 net39
*145 net4
*146 net40
*147 net41
*148 net42
*149 net43
*150 net45
*151 net46
*152 net47
*153 net48
*154 net49
*155 net5
*156 net50
*157 net51
*158 net52
*159 net53
*160 net54
*161 net55
*162 net56
*163 net57
*164 net58
*165 net59
*166 net6
*167 net60
*168 net61
*169 net62
*170 net63
*171 net64
*172 net65
*173 net66
*174 net67
*175 net68
*176 net69
*177 net7
*178 net70
*179 net71
*180 net72
*181 net8
*182 net9
*183 shift_register\[0\]
*184 shift_register\[10\]
*185 shift_register\[11\]
*186 shift_register\[12\]
*187 shift_register\[13\]
*188 shift_register\[14\]
*189 shift_register\[15\]
*190 shift_register\[1\]
*191 shift_register\[2\]
*192 shift_register\[3\]
*193 shift_register\[4\]
*194 shift_register\[5\]
*195 shift_register\[6\]
*196 shift_register\[7\]
*197 shift_register\[8\]
*198 shift_register\[9\]
*199 BUF\[0\]
*200 BUF\[1\]
*201 BUF\[2\]
*202 FILLER_0_23
*203 FILLER_0_26
*204 FILLER_0_29
*205 FILLER_0_32
*206 FILLER_0_35
*207 FILLER_0_38
*208 FILLER_0_41
*209 FILLER_0_44
*210 FILLER_0_47
*211 FILLER_0_49
*212 FILLER_0_52
*213 FILLER_0_55
*214 FILLER_0_58
*215 FILLER_0_77
*216 FILLER_0_80
*217 FILLER_0_83
*218 FILLER_0_86
*219 FILLER_10_12
*220 FILLER_10_15
*221 FILLER_10_18
*222 FILLER_10_21
*223 FILLER_10_24
*224 FILLER_10_27
*225 FILLER_10_29
*226 FILLER_10_3
*227 FILLER_10_32
*228 FILLER_10_35
*229 FILLER_10_38
*230 FILLER_10_6
*231 FILLER_10_70
*232 FILLER_10_80
*233 FILLER_10_83
*234 FILLER_10_9
*235 FILLER_10_90
*236 FILLER_11_12
*237 FILLER_11_15
*238 FILLER_11_25
*239 FILLER_11_48
*240 FILLER_11_9
*241 FILLER_11_91
*242 FILLER_12_22
*243 FILLER_12_25
*244 FILLER_12_29
*245 FILLER_12_3
*246 FILLER_12_32
*247 FILLER_12_35
*248 FILLER_12_45
*249 FILLER_12_48
*250 FILLER_12_51
*251 FILLER_12_67
*252 FILLER_12_90
*253 FILLER_13_3
*254 FILLER_13_40
*255 FILLER_13_43
*256 FILLER_13_46
*257 FILLER_13_49
*258 FILLER_13_52
*259 FILLER_13_55
*260 FILLER_13_57
*261 FILLER_13_74
*262 FILLER_14_19
*263 FILLER_14_32
*264 FILLER_14_43
*265 FILLER_14_46
*266 FILLER_14_72
*267 FILLER_14_90
*268 FILLER_15_23
*269 FILLER_15_57
*270 FILLER_15_90
*271 FILLER_16_18
*272 FILLER_16_49
*273 FILLER_16_90
*274 FILLER_17_55
*275 FILLER_17_57
*276 FILLER_18_14
*277 FILLER_18_29
*278 FILLER_18_58
*279 FILLER_18_90
*280 FILLER_19_43
*281 FILLER_19_90
*282 FILLER_1_23
*283 FILLER_1_26
*284 FILLER_1_29
*285 FILLER_1_66
*286 FILLER_1_75
*287 FILLER_1_77
*288 FILLER_1_80
*289 FILLER_1_83
*290 FILLER_1_86
*291 FILLER_20_29
*292 FILLER_20_3
*293 FILLER_20_83
*294 FILLER_20_90
*295 FILLER_21_19
*296 FILLER_21_62
*297 FILLER_22_29
*298 FILLER_22_3
*299 FILLER_22_90
*300 FILLER_23_3
*301 FILLER_23_90
*302 FILLER_2_28
*303 FILLER_2_31
*304 FILLER_2_34
*305 FILLER_2_37
*306 FILLER_2_40
*307 FILLER_2_43
*308 FILLER_2_57
*309 FILLER_2_91
*310 FILLER_3_23
*311 FILLER_3_26
*312 FILLER_3_29
*313 FILLER_3_90
*314 FILLER_4_12
*315 FILLER_4_15
*316 FILLER_4_18
*317 FILLER_4_21
*318 FILLER_4_24
*319 FILLER_4_27
*320 FILLER_4_29
*321 FILLER_4_3
*322 FILLER_4_32
*323 FILLER_4_35
*324 FILLER_4_6
*325 FILLER_4_80
*326 FILLER_4_83
*327 FILLER_4_9
*328 FILLER_4_90
*329 FILLER_5_12
*330 FILLER_5_15
*331 FILLER_5_18
*332 FILLER_5_21
*333 FILLER_5_24
*334 FILLER_5_27
*335 FILLER_5_30
*336 FILLER_5_33
*337 FILLER_5_54
*338 FILLER_5_57
*339 FILLER_5_6
*340 FILLER_5_63
*341 FILLER_5_9
*342 FILLER_6_10
*343 FILLER_6_17
*344 FILLER_6_20
*345 FILLER_6_23
*346 FILLER_6_26
*347 FILLER_6_29
*348 FILLER_6_3
*349 FILLER_6_32
*350 FILLER_6_35
*351 FILLER_6_66
*352 FILLER_6_90
*353 FILLER_7_23
*354 FILLER_7_26
*355 FILLER_7_29
*356 FILLER_7_32
*357 FILLER_7_35
*358 FILLER_7_38
*359 FILLER_7_41
*360 FILLER_7_44
*361 FILLER_7_47
*362 FILLER_7_57
*363 FILLER_8_19
*364 FILLER_8_22
*365 FILLER_8_25
*366 FILLER_8_29
*367 FILLER_8_32
*368 FILLER_8_35
*369 FILLER_8_38
*370 FILLER_8_41
*371 FILLER_8_44
*372 FILLER_8_90
*373 FILLER_9_12
*374 FILLER_9_15
*375 FILLER_9_18
*376 FILLER_9_21
*377 FILLER_9_24
*378 FILLER_9_27
*379 FILLER_9_30
*380 FILLER_9_33
*381 FILLER_9_55
*382 FILLER_9_57
*383 FILLER_9_6
*384 FILLER_9_9
*385 PHY_EDGE_ROW_0_2_Left_3
*386 PHY_EDGE_ROW_0_2_Right_27
*387 PHY_EDGE_ROW_10_Left_34
*388 PHY_EDGE_ROW_10_Right_13
*389 PHY_EDGE_ROW_11_Left_35
*390 PHY_EDGE_ROW_11_Right_14
*391 PHY_EDGE_ROW_12_Left_36
*392 PHY_EDGE_ROW_12_Right_15
*393 PHY_EDGE_ROW_13_Left_37
*394 PHY_EDGE_ROW_13_Right_16
*395 PHY_EDGE_ROW_14_Left_38
*396 PHY_EDGE_ROW_14_Right_17
*397 PHY_EDGE_ROW_15_Left_39
*398 PHY_EDGE_ROW_15_Right_18
*399 PHY_EDGE_ROW_16_Left_40
*400 PHY_EDGE_ROW_16_Right_19
*401 PHY_EDGE_ROW_17_Left_41
*402 PHY_EDGE_ROW_17_Right_20
*403 PHY_EDGE_ROW_18_Left_42
*404 PHY_EDGE_ROW_18_Right_21
*405 PHY_EDGE_ROW_19_Left_43
*406 PHY_EDGE_ROW_19_Right_22
*407 PHY_EDGE_ROW_1_2_Left_0
*408 PHY_EDGE_ROW_1_2_Right_4
*409 PHY_EDGE_ROW_20_Left_44
*410 PHY_EDGE_ROW_20_Right_23
*411 PHY_EDGE_ROW_21_Left_45
*412 PHY_EDGE_ROW_21_Right_24
*413 PHY_EDGE_ROW_22_Left_46
*414 PHY_EDGE_ROW_22_Right_25
*415 PHY_EDGE_ROW_23_Left_47
*416 PHY_EDGE_ROW_23_Right_26
*417 PHY_EDGE_ROW_2_2_Left_1
*418 PHY_EDGE_ROW_2_2_Right_5
*419 PHY_EDGE_ROW_3_2_Left_2
*420 PHY_EDGE_ROW_3_2_Right_6
*421 PHY_EDGE_ROW_4_Left_28
*422 PHY_EDGE_ROW_4_Right_7
*423 PHY_EDGE_ROW_5_Left_29
*424 PHY_EDGE_ROW_5_Right_8
*425 PHY_EDGE_ROW_6_Left_30
*426 PHY_EDGE_ROW_6_Right_9
*427 PHY_EDGE_ROW_7_Left_31
*428 PHY_EDGE_ROW_7_Right_10
*429 PHY_EDGE_ROW_8_Left_32
*430 PHY_EDGE_ROW_8_Right_11
*431 PHY_EDGE_ROW_9_Left_33
*432 PHY_EDGE_ROW_9_Right_12
*433 TAP_TAPCELL_ROW_0_2_84
*434 TAP_TAPCELL_ROW_0_2_85
*435 TAP_TAPCELL_ROW_10_61
*436 TAP_TAPCELL_ROW_10_62
*437 TAP_TAPCELL_ROW_11_63
*438 TAP_TAPCELL_ROW_12_64
*439 TAP_TAPCELL_ROW_12_65
*440 TAP_TAPCELL_ROW_13_66
*441 TAP_TAPCELL_ROW_14_67
*442 TAP_TAPCELL_ROW_14_68
*443 TAP_TAPCELL_ROW_15_69
*444 TAP_TAPCELL_ROW_16_70
*445 TAP_TAPCELL_ROW_16_71
*446 TAP_TAPCELL_ROW_17_72
*447 TAP_TAPCELL_ROW_18_73
*448 TAP_TAPCELL_ROW_18_74
*449 TAP_TAPCELL_ROW_19_75
*450 TAP_TAPCELL_ROW_1_2_48
*451 TAP_TAPCELL_ROW_20_76
*452 TAP_TAPCELL_ROW_20_77
*453 TAP_TAPCELL_ROW_21_78
*454 TAP_TAPCELL_ROW_22_79
*455 TAP_TAPCELL_ROW_22_80
*456 TAP_TAPCELL_ROW_23_81
*457 TAP_TAPCELL_ROW_23_82
*458 TAP_TAPCELL_ROW_23_83
*459 TAP_TAPCELL_ROW_2_2_49
*460 TAP_TAPCELL_ROW_3_2_50
*461 TAP_TAPCELL_ROW_4_51
*462 TAP_TAPCELL_ROW_4_52
*463 TAP_TAPCELL_ROW_4_53
*464 TAP_TAPCELL_ROW_5_54
*465 TAP_TAPCELL_ROW_6_55
*466 TAP_TAPCELL_ROW_6_56
*467 TAP_TAPCELL_ROW_7_57
*468 TAP_TAPCELL_ROW_8_58
*469 TAP_TAPCELL_ROW_8_59
*470 TAP_TAPCELL_ROW_9_60
*471 _057_
*472 _058_
*473 _059_
*474 _060_
*475 _061_
*476 _062_
*477 _063_
*478 _064_
*479 _065_
*480 _066_
*481 _067_
*482 _068_
*483 _069_
*484 _070_
*485 _071_
*486 _072_
*487 _073_
*488 _074_
*489 _075_
*490 _076_
*491 _077_
*492 _078_
*493 _079_
*494 _080_
*495 _081_
*496 _082_
*497 _083_
*498 _084_
*499 _085_
*500 _086_
*501 _087_
*502 _088_
*503 _089_
*504 _090_
*505 _091_
*506 _092_
*507 _093_
*508 _094_
*509 _095_
*510 _096_
*511 _097_
*512 _098_
*513 _099_
*514 _100_
*515 _101_
*516 _102_
*517 _103_
*518 _104_
*519 _105_
*520 _106_
*521 _107_
*522 _108_
*523 _109_
*524 _110_
*525 _111_
*526 _112_
*527 _113_
*528 _114_
*529 _115_
*530 _116_
*531 _117_
*532 _118_
*533 _119_
*534 _120_
*535 _121_
*536 _122_
*537 _123_
*538 _124_
*539 _125_
*540 _126_
*541 _127_
*542 _128_
*543 _129_
*544 _130_
*545 _131_
*546 _132_
*547 _133_
*548 _134_
*549 _136_
*550 fanout39
*551 fanout40
*552 fanout41
*553 fanout42
*554 fanout43
*555 gpio_control_block_44
*556 gpio_logic_high
*557 hold1
*558 hold10
*559 hold11
*560 hold12
*561 hold13
*562 hold14
*563 hold15
*564 hold16
*565 hold17
*566 hold18
*567 hold19
*568 hold2
*569 hold20
*570 hold21
*571 hold22
*572 hold23
*573 hold24
*574 hold25
*575 hold26
*576 hold27
*577 hold28
*578 hold3
*579 hold4
*580 hold5
*581 hold6
*582 hold7
*583 hold8
*584 hold9
*585 input1
*586 input10
*587 input11
*588 input12
*589 input13
*590 input14
*591 input15
*592 input16
*593 input17
*594 input18
*595 input19
*596 input2
*597 input20
*598 input3
*599 input4
*600 input5
*601 input6
*602 input7
*603 input8
*604 input9
*605 output21
*606 output22
*607 output23
*608 output24
*609 output25
*610 output26
*611 output27
*612 output28
*613 output29
*614 output30
*615 output31
*616 output32
*617 output33
*618 output34
*619 output35
*620 output36
*621 output37
*622 output38

*PORTS
gpio_defaults[0] I
gpio_defaults[10] I
gpio_defaults[11] I
gpio_defaults[12] I
gpio_defaults[13] I
gpio_defaults[14] I
gpio_defaults[15] I
gpio_defaults[1] I
gpio_defaults[2] I
gpio_defaults[3] I
gpio_defaults[4] I
gpio_defaults[5] I
gpio_defaults[6] I
gpio_defaults[7] I
gpio_defaults[8] I
gpio_defaults[9] I
mgmt_gpio_in O
mgmt_gpio_oeb I
mgmt_gpio_out I
pad_gpio_ana_en O
pad_gpio_ana_pol O
pad_gpio_ana_sel O
pad_gpio_dm[0] O
pad_gpio_dm[1] O
pad_gpio_dm[2] O
pad_gpio_holdover O
pad_gpio_hys_trim O
pad_gpio_ib_mode_sel O
pad_gpio_in I
pad_gpio_inenb O
pad_gpio_out O
pad_gpio_outenb O
pad_gpio_slew_ctl[0] O
pad_gpio_slew_ctl[1] O
pad_gpio_slow_sel O
pad_gpio_vtrip_sel O
resetn I
resetn_out O
serial_clock I
serial_clock_out O
serial_data_in I
serial_data_out O
serial_load I
serial_load_out O
user_gpio_in O
user_gpio_oeb I
user_gpio_out I

*D_NET *1 0.00401547
*CONN
*P gpio_defaults[0] I
*I *580:A I *D sky130_fd_sc_hd__dlygate4sd3_1
*CAP
1 gpio_defaults[0] 0.00136567
2 *580:A 0.00136567
3 *580:A *558:A 0.000231787
4 *580:A *559:A 4.75576e-05
5 *580:A *568:A 0
6 *580:A *584:A 9.97536e-06
7 *580:A *585:A 0.000994803
*RES
1 gpio_defaults[0] *580:A 20.97 
*END

*D_NET *2 0.00358337
*CONN
*P gpio_defaults[10] I
*I *558:A I *D sky130_fd_sc_hd__dlygate4sd3_1
*CAP
1 gpio_defaults[10] 0.00110209
2 *558:A 0.00110209
3 *558:A pad_gpio_outenb 0.000845846
4 *558:A *560:A 0
5 *558:A *579:A 2.15738e-05
6 *558:A *584:A 0.000196654
7 *558:A *617:A 8.33308e-05
8 *580:A *558:A 0.000231787
*RES
1 gpio_defaults[10] *558:A 19.8 
*END

*D_NET *3 0.00165343
*CONN
*P gpio_defaults[11] I
*I *560:A I *D sky130_fd_sc_hd__dlygate4sd3_1
*CAP
1 gpio_defaults[11] 0.000631891
2 *560:A 0.000631891
3 *560:A pad_gpio_outenb 5.71394e-05
4 *560:A pad_gpio_vtrip_sel 8.23457e-05
5 *560:A *581:A 2.38193e-05
6 *560:A *600:A 0
7 *560:A *602:A 0.000179733
8 *560:A *177:10 4.66108e-05
9 *558:A *560:A 0
*RES
1 gpio_defaults[11] *560:A 12.765 
*END

*D_NET *4 0.00478918
*CONN
*P gpio_defaults[12] I
*I *581:A I *D sky130_fd_sc_hd__dlygate4sd3_1
*CAP
1 gpio_defaults[12] 0.00105259
2 *581:A 0.00105259
3 *581:A *557:A 0.000885856
4 *581:A *559:A 0.00102714
5 *581:A *582:A 0.000337716
6 *581:A *584:A 0.00026503
7 *581:A *585:A 0.000144443
8 *581:A *600:A 0
9 *560:A *581:A 2.38193e-05
*RES
1 gpio_defaults[12] *581:A 32.23 
*END

*D_NET *5 0.00823877
*CONN
*P gpio_defaults[13] I
*I *600:A I *D sky130_fd_sc_hd__clkbuf_1
*CAP
1 gpio_defaults[13] 0.00219946
2 *600:A 0.00219946
3 *600:A pad_gpio_out 0.000504685
4 *600:A *472:A 0.00030448
5 *600:A *485:B 2.19562e-06
6 *600:A *496:A 1.59211e-05
7 *600:A *496:B 0.000386638
8 *600:A *526:D 0.000249282
9 *600:A *526:RESET_B 3.00381e-05
10 *600:A *526:SET_B 2.08071e-05
11 *600:A *544:CLK 3.57349e-05
12 *600:A *545:CLK 0.000182912
13 *600:A *601:A 0.000260858
14 *600:A *611:A 0.000231415
15 *600:A *613:A 0.000692779
16 *600:A *39:118 2.82846e-05
17 *600:A *39:138 0.00014036
18 *600:A *114:14 5.83121e-06
19 *600:A *116:18 0.000455049
20 *600:A *147:29 4.19883e-05
21 *600:A *147:48 6.07575e-06
22 *600:A *148:104 9.17647e-05
23 *600:A *155:10 0.000152761
24 *560:A *600:A 0
25 *581:A *600:A 0
*RES
1 gpio_defaults[13] *600:A 48.46 
*END

*D_NET *7 0.00524363
*CONN
*P gpio_defaults[15] I
*I *601:A I *D sky130_fd_sc_hd__clkbuf_1
*CAP
1 gpio_defaults[15] 0.00144211
2 *601:A 0.00144211
3 *601:A pad_gpio_ib_mode_sel 0.000398928
4 *601:A *495:A 1.5895e-05
5 *601:A *496:A 5.63341e-05
6 *601:A *548:D 1.91597e-05
7 *601:A *568:A 0.000239416
8 *601:A *578:A 0.000269551
9 *601:A *579:A 0.000596448
10 *601:A *116:18 0.000405222
11 *601:A *149:62 7.92152e-05
12 *601:A *176:6 1.83756e-05
13 *600:A *601:A 0.000260858
*RES
1 gpio_defaults[15] *601:A 33.79 
*END

*D_NET *9 0.00365183
*CONN
*P gpio_defaults[2] I
*I *568:A I *D sky130_fd_sc_hd__dlygate4sd3_1
*CAP
1 gpio_defaults[2] 0.00134227
2 *568:A 0.00134227
3 *568:A *495:A 0.000379069
4 *568:A *523:RESET_B 0.000303987
5 *568:A *557:A 1.03833e-05
6 *568:A *559:A 0
7 *568:A *578:A 0
8 *568:A *583:A 3.44333e-05
9 *568:A *116:18 0
10 *568:A *177:10 0
11 *580:A *568:A 0
12 *601:A *568:A 0.000239416
*RES
1 gpio_defaults[2] *568:A 26.605 
*END

*D_NET *10 0.0028792
*CONN
*P gpio_defaults[3] I
*I *557:A I *D sky130_fd_sc_hd__dlygate4sd3_1
*CAP
1 gpio_defaults[3] 0.000879855
2 *557:A 0.000879855
3 *557:A *495:B 2.49909e-05
4 *557:A *578:A 0.000198258
5 *568:A *557:A 1.03833e-05
6 *581:A *557:A 0.000885856
*RES
1 gpio_defaults[3] *557:A 22.63 
*END

*D_NET *11 0.00419978
*CONN
*P gpio_defaults[4] I
*I *578:A I *D sky130_fd_sc_hd__dlygate4sd3_1
*CAP
1 gpio_defaults[4] 0.0014983
2 *578:A 0.0014983
3 *578:A *495:A 0.000453648
4 *578:A *522:RESET_B 9.27255e-06
5 *578:A *582:A 3.17852e-05
6 *578:A *583:A 0
7 *578:A *584:A 0
8 *578:A *603:A 0.000120655
9 *578:A *152:32 8.48262e-05
10 *578:A *177:10 3.51805e-05
11 *557:A *578:A 0.000198258
12 *568:A *578:A 0
13 *601:A *578:A 0.000269551
*RES
1 gpio_defaults[4] *578:A 24.96 
*END

*D_NET *12 0.00497374
*CONN
*P gpio_defaults[5] I
*I *582:A I *D sky130_fd_sc_hd__dlygate4sd3_1
*CAP
1 gpio_defaults[5] 0.00193396
2 *582:A 0.00193396
3 *582:A *559:A 0.000690096
4 *582:A *583:A 3.76946e-05
5 *582:A *584:A 8.53113e-06
6 *578:A *582:A 3.17852e-05
7 *581:A *582:A 0.000337716
*RES
1 gpio_defaults[5] *582:A 32.185 
*END

*D_NET *13 0.00331383
*CONN
*P gpio_defaults[6] I
*I *583:A I *D sky130_fd_sc_hd__dlygate4sd3_1
*CAP
1 gpio_defaults[6] 0.00132523
2 *583:A 0.00132523
3 *583:A *481:A_N 0.000139245
4 *583:A *530:SET_B 0.000179331
5 *583:A *534:D 0
6 *583:A *584:A 0.000172963
7 *583:A *177:10 9.96961e-05
8 *568:A *583:A 3.44333e-05
9 *578:A *583:A 0
10 *582:A *583:A 3.76946e-05
*RES
1 gpio_defaults[6] *583:A 20.715 
*END

*D_NET *14 0.00486347
*CONN
*P gpio_defaults[7] I
*I *584:A I *D sky130_fd_sc_hd__dlygate4sd3_1
*CAP
1 gpio_defaults[7] 0.00105997
2 *584:A 0.00105997
3 *584:A pad_gpio_outenb 0.000128039
4 *584:A *559:A 0.000221836
5 *584:A *585:A 0.000162751
6 *584:A *588:A 4.82919e-05
7 *584:A *589:A 0.000244445
8 *584:A *598:A 0.000291906
9 *584:A *599:A 0.000155491
10 *584:A *617:A 8.33308e-05
11 *584:A *116:18 0.00066769
12 *584:A *177:10 8.65961e-05
13 *558:A *584:A 0.000196654
14 *578:A *584:A 0
15 *580:A *584:A 9.97536e-06
16 *581:A *584:A 0.00026503
17 *582:A *584:A 8.53113e-06
18 *583:A *584:A 0.000172963
*RES
1 gpio_defaults[7] *584:A 31.36 
*END

*D_NET *15 0.00321567
*CONN
*P gpio_defaults[8] I
*I *559:A I *D sky130_fd_sc_hd__dlygate4sd3_1
*CAP
1 gpio_defaults[8] 0.000466343
2 *559:A 0.000466343
3 *559:A *495:A 1.56296e-05
4 *559:A *579:A 6.3608e-05
5 *559:A *585:A 4.80563e-05
6 *559:A *617:A 0.000169055
7 *568:A *559:A 0
8 *580:A *559:A 4.75576e-05
9 *581:A *559:A 0.00102714
10 *582:A *559:A 0.000690096
11 *584:A *559:A 0.000221836
*RES
1 gpio_defaults[8] *559:A 22.18 
*END

*D_NET *16 0.00267145
*CONN
*P gpio_defaults[9] I
*I *579:A I *D sky130_fd_sc_hd__dlygate4sd3_1
*CAP
1 gpio_defaults[9] 0.000680644
2 *579:A 0.000680644
3 *579:A pad_gpio_ib_mode_sel 0.000335978
4 *579:A *495:A 0.000120655
5 *579:A *616:A 0.000171899
6 *558:A *579:A 2.15738e-05
7 *559:A *579:A 6.3608e-05
8 *601:A *579:A 0.000596448
*RES
1 gpio_defaults[9] *579:A 17.025 
*END

*D_NET *17 0.000847276
*CONN
*P mgmt_gpio_in O
*I *605:X O *D sky130_fd_sc_hd__buf_12
*CAP
1 mgmt_gpio_in 0.000423638
2 *605:X 0.000423638
3 mgmt_gpio_in *592:A 0
4 mgmt_gpio_in *594:A 0
5 mgmt_gpio_in *605:A 0
*RES
1 *605:X mgmt_gpio_in 10.1239 
*END

*D_NET *18 0.000820667
*CONN
*P mgmt_gpio_oeb I
*I *591:A I *D sky130_fd_sc_hd__clkbuf_1
*CAP
1 mgmt_gpio_oeb 0.000322542
2 *591:A 0.000322542
3 *591:A *200:A 0
4 *591:A *488:A1 0.000175583
5 *591:A *592:A 0
6 *591:A *597:A 0
*RES
1 mgmt_gpio_oeb *591:A 6.7483 
*END

*D_NET *19 0.000510805
*CONN
*P mgmt_gpio_out I
*I *592:A I *D sky130_fd_sc_hd__clkbuf_1
*CAP
1 mgmt_gpio_out 0.000255403
2 *592:A 0.000255403
3 mgmt_gpio_in *592:A 0
4 *591:A *592:A 0
*RES
1 mgmt_gpio_out *592:A 7.09217 
*END

*D_NET *20 0.00303545
*CONN
*P pad_gpio_ana_en O
*I *606:X O *D sky130_fd_sc_hd__buf_12
*CAP
1 pad_gpio_ana_en 0.000772511
2 *606:X 0.000772511
3 pad_gpio_ana_en pad_gpio_dm[0] 0
4 pad_gpio_ana_en pad_gpio_dm[1] 0
5 pad_gpio_ana_en *474:B 4.27883e-06
6 pad_gpio_ana_en *498:A 6.83684e-05
7 pad_gpio_ana_en *565:A 0.000364625
8 pad_gpio_ana_en *606:A 0.000442874
9 pad_gpio_ana_en *134:30 0.000458552
10 pad_gpio_ana_en *144:42 3.60481e-05
11 pad_gpio_ana_en *144:44 0.000115676
*RES
1 *606:X pad_gpio_ana_en 16.1781 
*END

*D_NET *21 0.00116974
*CONN
*P pad_gpio_ana_pol O
*I *607:X O *D sky130_fd_sc_hd__buf_12
*CAP
1 pad_gpio_ana_pol 0.000459347
2 *607:X 0.000435177
3 *21:15 2.41699e-05
4 pad_gpio_ana_pol pad_gpio_slew_ctl[0] 0
5 pad_gpio_ana_pol *502:B 6.78039e-05
6 pad_gpio_ana_pol *529:RESET_B 2.79137e-05
7 pad_gpio_ana_pol *549:A 0.00015533
8 *21:15 pad_gpio_inenb 0
9 *21:15 *33:15 0
*RES
1 *607:X pad_gpio_ana_pol 10.9925 
2 pad_gpio_ana_pol *21:15 0.0481333 
*END

*D_NET *22 0.00148956
*CONN
*P pad_gpio_ana_sel O
*I *608:X O *D sky130_fd_sc_hd__buf_12
*CAP
1 pad_gpio_ana_sel 0.000578907
2 *608:X 0.000578907
3 pad_gpio_ana_sel pad_gpio_inenb 0
4 pad_gpio_ana_sel pad_gpio_slew_ctl[1] 0
5 pad_gpio_ana_sel *501:B 3.09164e-05
6 pad_gpio_ana_sel *528:RESET_B 3.59784e-05
7 pad_gpio_ana_sel *549:A 3.1176e-05
8 pad_gpio_ana_sel *604:A 6.71882e-05
9 pad_gpio_ana_sel *608:A 0.000116158
10 pad_gpio_ana_sel *146:55 5.03268e-05
*RES
1 *608:X pad_gpio_ana_sel 9.0981 
*END

*D_NET *23 0.00157918
*CONN
*P pad_gpio_dm[0] O
*I *609:X O *D sky130_fd_sc_hd__buf_12
*CAP
1 pad_gpio_dm[0] 0.000596101
2 *609:X 0.000596101
3 pad_gpio_dm[0] *497:B 0
4 pad_gpio_dm[0] *524:SET_B 6.57949e-06
5 pad_gpio_dm[0] *606:A 0.000173865
6 pad_gpio_dm[0] *609:A 0.000120186
7 pad_gpio_dm[0] *33:15 0
8 pad_gpio_dm[0] *123:22 8.63479e-05
9 pad_gpio_ana_en pad_gpio_dm[0] 0
*RES
1 *609:X pad_gpio_dm[0] 8.52463 
*END

*D_NET *24 0.00425659
*CONN
*P pad_gpio_dm[1] O
*I *610:X O *D sky130_fd_sc_hd__buf_12
*CAP
1 pad_gpio_dm[1] 0.00201172
2 *610:X 0.00201172
3 pad_gpio_dm[1] *542:RESET_B 0
4 pad_gpio_dm[1] *573:A 0.000150299
5 pad_gpio_dm[1] *610:A 8.28535e-05
6 pad_gpio_dm[1] *35:15 0
7 pad_gpio_dm[1] *116:26 0
8 pad_gpio_ana_en pad_gpio_dm[1] 0
*RES
1 *610:X pad_gpio_dm[1] 12.6611 
*END

*D_NET *25 0.00135401
*CONN
*P pad_gpio_dm[2] O
*I *611:X O *D sky130_fd_sc_hd__buf_12
*CAP
1 pad_gpio_dm[2] 0.000500811
2 *611:X 0.000476641
3 *25:15 2.41699e-05
4 pad_gpio_dm[2] *473:A_N 1.99427e-05
5 pad_gpio_dm[2] *514:A 8.23457e-05
6 pad_gpio_dm[2] *526:SET_B 0.000120054
7 pad_gpio_dm[2] *611:A 4.66108e-05
8 pad_gpio_dm[2] *145:24 8.34394e-05
9 *25:15 pad_gpio_holdover 0
10 *25:15 *27:15 0
*RES
1 *611:X pad_gpio_dm[2] 11.7575 
2 pad_gpio_dm[2] *25:15 0.0481333 
*END

*D_NET *26 0.00128047
*CONN
*P pad_gpio_holdover O
*I *612:X O *D sky130_fd_sc_hd__buf_12
*CAP
1 pad_gpio_holdover 0.000538832
2 *612:X 0.000538832
3 pad_gpio_holdover pad_gpio_out 0
4 pad_gpio_holdover *514:A 0.000127011
5 pad_gpio_holdover *526:SET_B 1.79483e-05
6 pad_gpio_holdover *530:RESET_B 5.78492e-05
7 pad_gpio_holdover *117:18 0
8 *25:15 pad_gpio_holdover 0
*RES
1 *612:X pad_gpio_holdover 6.5879 
*END

*D_NET *27 0.000886422
*CONN
*P pad_gpio_hys_trim O
*I *613:X O *D sky130_fd_sc_hd__buf_12
*CAP
1 pad_gpio_hys_trim 0.000429454
2 *613:X 0.000408994
3 *27:15 2.04593e-05
4 pad_gpio_hys_trim *613:A 0
5 pad_gpio_hys_trim *146:53 2.75145e-05
6 pad_gpio_hys_trim *182:12 0
7 *27:15 pad_gpio_slew_ctl[1] 0
8 *25:15 *27:15 0
*RES
1 *613:X pad_gpio_hys_trim 10.5275 
2 pad_gpio_hys_trim *27:15 0.0481333 
*END

*D_NET *28 0.00257662
*CONN
*P pad_gpio_ib_mode_sel O
*I *614:X O *D sky130_fd_sc_hd__buf_12
*CAP
1 pad_gpio_ib_mode_sel 0.000643509
2 *614:X 0.00062676
3 *28:15 1.67487e-05
4 pad_gpio_ib_mode_sel pad_gpio_out 0.000419392
5 pad_gpio_ib_mode_sel pad_gpio_outenb 0
6 pad_gpio_ib_mode_sel *494:A 1.19928e-05
7 pad_gpio_ib_mode_sel *496:A 0
8 pad_gpio_ib_mode_sel *616:A 0.000123313
9 *28:15 pad_gpio_vtrip_sel 0
10 *28:15 *32:15 0
11 *579:A pad_gpio_ib_mode_sel 0.000335978
12 *601:A pad_gpio_ib_mode_sel 0.000398928
*RES
1 *614:X pad_gpio_ib_mode_sel 17.2775 
2 pad_gpio_ib_mode_sel *28:15 0.0481333 
*END

*D_NET *29 0.000629601
*CONN
*P pad_gpio_in I
*I *593:A I *D sky130_fd_sc_hd__buf_1
*CAP
1 pad_gpio_in 0.000314801
2 *593:A 0.000314801
3 *593:A *35:15 0
*RES
1 pad_gpio_in *593:A 6.26023 
*END

*D_NET *30 0.00125484
*CONN
*P pad_gpio_inenb O
*I *615:X O *D sky130_fd_sc_hd__buf_12
*CAP
1 pad_gpio_inenb 0.000551159
2 *615:X 0.000551159
3 pad_gpio_inenb *502:A 0.000146827
4 pad_gpio_inenb *502:B 5.69898e-06
5 pad_gpio_ana_sel pad_gpio_inenb 0
6 *21:15 pad_gpio_inenb 0
*RES
1 *615:X pad_gpio_inenb 9.69177 
*END

*D_NET *31 0.00242017
*CONN
*P pad_gpio_out O
*I *616:X O *D sky130_fd_sc_hd__buf_12
*CAP
1 pad_gpio_out 0.000473292
2 *616:X 0.000473292
3 pad_gpio_out pad_gpio_vtrip_sel 0
4 pad_gpio_out *494:A 7.96794e-05
5 pad_gpio_out *494:B 4.82863e-05
6 pad_gpio_out *496:A 4.34042e-05
7 pad_gpio_out *521:RESET_B 6.78039e-05
8 pad_gpio_out *147:164 0.00031033
9 pad_gpio_holdover pad_gpio_out 0
10 pad_gpio_ib_mode_sel pad_gpio_out 0.000419392
11 *600:A pad_gpio_out 0.000504685
*RES
1 *616:X pad_gpio_out 15.202 
*END

*D_NET *32 0.00322463
*CONN
*P pad_gpio_outenb O
*I *617:X O *D sky130_fd_sc_hd__buf_12
*CAP
1 pad_gpio_outenb 0.000746914
2 *617:X 0.000730165
3 *32:15 1.67487e-05
4 pad_gpio_outenb pad_gpio_vtrip_sel 0.000101068
5 pad_gpio_outenb *496:A 0.000126748
6 pad_gpio_outenb *602:A 0.000333475
7 pad_gpio_outenb *620:A 0.00012208
8 pad_gpio_outenb *177:10 1.6408e-05
9 pad_gpio_ib_mode_sel pad_gpio_outenb 0
10 *558:A pad_gpio_outenb 0.000845846
11 *560:A pad_gpio_outenb 5.71394e-05
12 *584:A pad_gpio_outenb 0.000128039
13 *28:15 *32:15 0
*RES
1 *617:X pad_gpio_outenb 19.6175 
2 pad_gpio_outenb *32:15 0.0481333 
*END

*D_NET *33 0.0013692
*CONN
*P pad_gpio_slew_ctl[0] O
*I *618:X O *D sky130_fd_sc_hd__buf_12
*CAP
1 pad_gpio_slew_ctl[0] 0.000652946
2 *618:X 0.000632487
3 *33:15 2.04593e-05
4 pad_gpio_slew_ctl[0] *615:A 6.33103e-05
5 pad_gpio_ana_pol pad_gpio_slew_ctl[0] 0
6 pad_gpio_dm[0] *33:15 0
7 *21:15 *33:15 0
*RES
1 *618:X pad_gpio_slew_ctl[0] 13.2275 
2 pad_gpio_slew_ctl[0] *33:15 0.0481333 
*END

*D_NET *34 0.00223018
*CONN
*P pad_gpio_slew_ctl[1] O
*I *555:LO O *D sky130_fd_sc_hd__conb_1
*CAP
1 pad_gpio_slew_ctl[1] 0.00100245
2 *555:LO 0.00100245
3 pad_gpio_slew_ctl[1] *173:14 0.000225285
4 pad_gpio_ana_sel pad_gpio_slew_ctl[1] 0
5 *27:15 pad_gpio_slew_ctl[1] 0
*RES
1 *555:LO pad_gpio_slew_ctl[1] 8.07057 
*END

*D_NET *35 0.00382767
*CONN
*P pad_gpio_slow_sel O
*I *619:X O *D sky130_fd_sc_hd__buf_12
*CAP
1 pad_gpio_slow_sel 0.000838084
2 *619:X 0.000821335
3 *35:15 1.67487e-05
4 pad_gpio_slow_sel *484:A_N 0.000223617
5 pad_gpio_slow_sel *484:B 2.45928e-05
6 pad_gpio_slow_sel *498:A 6.84859e-05
7 pad_gpio_slow_sel *505:A 0.000227789
8 pad_gpio_slow_sel *542:CLK 4.85763e-05
9 pad_gpio_slow_sel *542:D 2.79137e-05
10 pad_gpio_slow_sel *565:A 0.000660156
11 pad_gpio_slow_sel *619:A 0.000336212
12 pad_gpio_slow_sel *134:18 0.000534157
13 pad_gpio_slow_sel *134:30 0
14 pad_gpio_dm[1] *35:15 0
15 *593:A *35:15 0
*RES
1 *619:X pad_gpio_slow_sel 24.6125 
2 pad_gpio_slow_sel *35:15 0.0481333 
*END

*D_NET *36 0.0022973
*CONN
*P pad_gpio_vtrip_sel O
*I *620:X O *D sky130_fd_sc_hd__buf_12
*CAP
1 pad_gpio_vtrip_sel 0.000633934
2 *620:X 0.000633934
3 pad_gpio_vtrip_sel *521:RESET_B 3.41108e-05
4 pad_gpio_vtrip_sel *523:RESET_B 9.4087e-05
5 pad_gpio_vtrip_sel *530:RESET_B 9.83417e-05
6 pad_gpio_vtrip_sel *620:A 0.000566154
7 pad_gpio_vtrip_sel *117:18 5.33294e-05
8 pad_gpio_out pad_gpio_vtrip_sel 0
9 pad_gpio_outenb pad_gpio_vtrip_sel 0.000101068
10 *560:A pad_gpio_vtrip_sel 8.23457e-05
11 *28:15 pad_gpio_vtrip_sel 0
*RES
1 *620:X pad_gpio_vtrip_sel 13.2098 
*END

*D_NET *37 0.0058016
*CONN
*P resetn I
*I *200:A I *D sky130_fd_sc_hd__clkbuf_8
*I *554:A I *D sky130_fd_sc_hd__clkbuf_2
*CAP
1 resetn 0.0011597
2 *200:A 0.0010383
3 *554:A 2.2266e-05
4 *37:21 0.00222026
5 *200:A *488:A0 9.30787e-05
6 *200:A *488:A1 0
7 *200:A *531:D 0
8 *200:A *553:A 0.000213668
9 *200:A *563:A 3.24923e-05
10 *200:A *622:A 0
11 *200:A *39:171 8.83851e-05
12 *200:A *152:32 0.00062503
13 *200:A *178:10 8.15676e-05
14 *554:A *489:A 4.82919e-05
15 *37:21 *489:B 0
16 *37:21 *622:A 2.54152e-05
17 *37:21 *39:9 0.000153151
18 *37:21 *43:5 0
19 *37:21 *134:18 0
20 *591:A *200:A 0
*RES
1 resetn *37:21 13.2174 
2 *37:21 *554:A 4.05 
3 *37:21 *200:A 23.85 
*END

*D_NET *38 0.000474452
*CONN
*P resetn_out O
*I *200:X O *D sky130_fd_sc_hd__clkbuf_8
*CAP
1 resetn_out 0.000237226
2 *200:X 0.000237226
3 resetn_out serial_clock_out 0
4 resetn_out serial_load_out 0
5 resetn_out user_gpio_in 0
*RES
1 *200:X resetn_out 6.67217 
*END

*D_NET *39 0.0227213
*CONN
*P serial_clock I
*I *531:CLK I *D sky130_fd_sc_hd__dfrtp_1
*I *538:CLK I *D sky130_fd_sc_hd__dfrtp_1
*I *545:CLK I *D sky130_fd_sc_hd__dfrtp_1
*I *546:CLK I *D sky130_fd_sc_hd__dfrtp_1
*I *534:CLK I *D sky130_fd_sc_hd__dfrtp_1
*I *535:CLK I *D sky130_fd_sc_hd__dfrtp_1
*I *201:A I *D sky130_fd_sc_hd__clkbuf_8
*I *533:CLK I *D sky130_fd_sc_hd__dfrtp_1
*I *532:CLK I *D sky130_fd_sc_hd__dfrtp_1
*I *544:CLK I *D sky130_fd_sc_hd__dfrtp_1
*I *472:A I *D sky130_fd_sc_hd__inv_2
*I *536:CLK I *D sky130_fd_sc_hd__dfrtp_1
*I *537:CLK I *D sky130_fd_sc_hd__dfrtp_1
*I *541:CLK I *D sky130_fd_sc_hd__dfrtp_1
*I *543:CLK I *D sky130_fd_sc_hd__dfrtp_1
*I *540:CLK I *D sky130_fd_sc_hd__dfrtp_1
*I *542:CLK I *D sky130_fd_sc_hd__dfrtp_1
*I *539:CLK I *D sky130_fd_sc_hd__dfrtp_1
*CAP
1 serial_clock 0.000442486
2 *531:CLK 0.000161378
3 *538:CLK 0
4 *545:CLK 9.1128e-05
5 *546:CLK 0
6 *534:CLK 0.000247867
7 *535:CLK 0.000181566
8 *201:A 3.61979e-05
9 *533:CLK 0
10 *532:CLK 0.000396488
11 *544:CLK 0.000300068
12 *472:A 0.000240791
13 *536:CLK 0
14 *537:CLK 7.80256e-05
15 *541:CLK 0.000316826
16 *543:CLK 4.93979e-05
17 *540:CLK 0
18 *542:CLK 0.000361955
19 *539:CLK 4.83096e-05
20 *39:193 0.000555665
21 *39:180 0.000240896
22 *39:171 0.000225052
23 *39:158 0.00112185
24 *39:146 0.000767865
25 *39:138 0.000344027
26 *39:120 0.000540859
27 *39:118 0.000295679
28 *39:107 0.000824934
29 *39:86 0.00117543
30 *39:76 0.000723852
31 *39:63 0.000824997
32 *39:45 0.000263533
33 *39:30 0.0008197
34 *39:22 0.000672501
35 *39:13 0.00121481
36 *39:9 0.00163013
37 *472:A *486:B 0.0002268
38 *472:A *491:B 0.000145961
39 *472:A *548:CLK 2.06295e-05
40 *472:A *567:A 2.64559e-05
41 *472:A *587:A 0.000120655
42 *472:A *595:A 7.79847e-05
43 *472:A *114:14 2.45351e-05
44 *531:CLK *531:D 7.33465e-05
45 *531:CLK *594:A 0
46 *531:CLK *605:A 5.89343e-05
47 *532:CLK *532:D 7.06674e-05
48 *532:CLK *563:A 4.36422e-06
49 *534:CLK *522:CLK_N 0.000220466
50 *534:CLK *534:D 6.33103e-05
51 *534:CLK *603:A 0.000160658
52 *534:CLK *148:27 0.000100142
53 *534:CLK *152:32 0
54 *535:CLK *535:D 1.08758e-05
55 *535:CLK *548:CLK 1.03733e-05
56 *535:CLK *548:D 0.000153635
57 *537:CLK *537:D 1.76441e-05
58 *541:CLK *541:D 7.35813e-05
59 *541:CLK *561:A 4.82919e-05
60 *541:CLK *123:22 0.000395828
61 *541:CLK *163:18 3.64998e-06
62 *542:CLK *540:RESET_B 0
63 *542:CLK *542:D 0
64 *542:CLK *619:A 2.64607e-05
65 *542:CLK *43:169 0.000384807
66 *544:CLK *544:D 6.97202e-05
67 *544:CLK *567:A 0.000186473
68 *544:CLK *155:10 0.000188125
69 *545:CLK *536:D 2.90383e-05
70 *545:CLK *123:22 3.08152e-05
71 *39:9 *489:B 0
72 *39:9 *531:D 3.98213e-05
73 *39:9 *594:A 0
74 *39:9 *43:5 0
75 *39:13 *531:D 1.4389e-05
76 *39:13 *594:A 5.83121e-06
77 *39:22 *539:D 6.07498e-06
78 *39:30 *577:A 0.000159305
79 *39:30 *43:9 0.000214921