*SPEF "ieee 1481-1999"
*DESIGN "gpio_control_block"
*DATE "20:32:53 Saturday June 14, 2025"
*VENDOR "The OpenROAD Project"
*PROGRAM "OpenROAD"
*VERSION "edf00dff99f6c40d67a30c0e22a8191c5d2ed9d6"
*DESIGN_FLOW "NAME_SCOPE LOCAL" "PIN_CAP NONE"
*DIVIDER /
*DELIMITER :
*BUS_DELIMITER []
*T_UNIT 1 NS
*C_UNIT 1 PF
*R_UNIT 1 OHM
*L_UNIT 1 HENRY

*NAME_MAP
*1 gpio_defaults[0]
*2 gpio_defaults[10]
*3 gpio_defaults[11]
*4 gpio_defaults[12]
*5 gpio_defaults[13]
*6 gpio_defaults[14]
*7 gpio_defaults[15]
*8 gpio_defaults[1]
*9 gpio_defaults[2]
*10 gpio_defaults[3]
*11 gpio_defaults[4]
*12 gpio_defaults[5]
*13 gpio_defaults[6]
*14 gpio_defaults[7]
*15 gpio_defaults[8]
*16 gpio_defaults[9]
*17 mgmt_gpio_in
*18 mgmt_gpio_oeb
*19 mgmt_gpio_out
*20 pad_gpio_ana_en
*21 pad_gpio_ana_pol
*22 pad_gpio_ana_sel
*23 pad_gpio_dm[0]
*24 pad_gpio_dm[1]
*25 pad_gpio_dm[2]
*26 pad_gpio_holdover
*27 pad_gpio_hys_trim
*28 pad_gpio_ib_mode_sel
*29 pad_gpio_in
*30 pad_gpio_inenb
*31 pad_gpio_out
*32 pad_gpio_outenb
*33 pad_gpio_slew_ctl[0]
*34 net44
*35 pad_gpio_slow_sel
*36 pad_gpio_vtrip_sel
*37 resetn
*38 resetn_out
*39 serial_clock
*40 serial_clock_out
*41 serial_data_in
*42 serial_data_out
*43 serial_load
*44 serial_load_out
*45 user_gpio_in
*46 user_gpio_oeb
*47 user_gpio_out
*52 _000_
*53 _001_
*54 _002_
*55 _003_
*56 _004_
*57 _005_
*58 _006_
*59 _007_
*60 _008_
*61 _009_
*62 _010_
*63 _011_
*64 _012_
*65 _013_
*66 _014_
*67 _015_
*68 _016_
*69 _017_
*70 _018_
*71 _019_
*72 _020_
*73 _021_
*74 _022_
*75 _023_
*76 _024_
*77 _025_
*78 _026_
*79 _027_
*80 _028_
*81 _029_
*82 _030_
*83 _031_
*84 _032_
*85 _033_
*86 _034_
*87 _035_
*88 _036_
*89 _037_
*90 _038_
*91 _039_
*92 _040_
*93 _041_
*94 _042_
*95 _043_
*96 _044_
*97 _045_
*98 _046_
*99 _047_
*100 _048_
*101 _049_
*102 _050_
*103 _051_
*104 _052_
*105 _053_
*106 _054_
*107 _055_
*108 _056_
*109 gpio_logic1
*110 gpio_slew_ctl
*111 mgmt_ena
*112 net1
*113 net10
*114 net11
*115 net12
*116 net13
*117 net14
*118 net15
*119 net16
*120 net17
*121 net18
*122 net19
*123 net2
*124 net20
*125 net21
*126 net22
*127 net23
*128 net24
*129 net25
*130 net26
*131 net27
*132 net28
*133 net29
*134 net3
*135 net30
*136 net31
*137 net32
*138 net33
*139 net34
*140 net35
*141 net36
*142 net37
*143 net38
*144 net39
*145 net4
*146 net40
*147 net41
*148 net42
*149 net43
*150 net45
*151 net46
*152 net47
*153 net48
*154 net49
*155 net5
*156 net50
*157 net51
*158 net52
*159 net53
*160 net54
*161 net55
*162 net56
*163 net57
*164 net58
*165 net59
*166 net6
*167 net60
*168 net61
*169 net62
*170 net63
*171 net64
*172 net65
*173 net66
*174 net67
*175 net68
*176 net69
*177 net7
*178 net70
*179 net71
*180 net72
*181 net8
*182 net9
*183 shift_register\[0\]
*184 shift_register\[10\]
*185 shift_register\[11\]
*186 shift_register\[12\]
*187 shift_register\[13\]
*188 shift_register\[14\]
*189 shift_register\[15\]
*190 shift_register\[1\]
*191 shift_register\[2\]
*192 shift_register\[3\]
*193 shift_register\[4\]
*194 shift_register\[5\]
*195 shift_register\[6\]
*196 shift_register\[7\]
*197 shift_register\[8\]
*198 shift_register\[9\]
*199 BUF\[0\]
*200 BUF\[1\]
*201 BUF\[2\]
*202 FILLER_0_23
*203 FILLER_0_35
*204 FILLER_0_47
*205 FILLER_0_49
*206 FILLER_0_57
*207 FILLER_0_77
*208 FILLER_10_15
*209 FILLER_10_27
*210 FILLER_10_29
*211 FILLER_10_3
*212 FILLER_10_37
*213 FILLER_10_70
*214 FILLER_10_80
*215 FILLER_10_90
*216 FILLER_11_25
*217 FILLER_11_48
*218 FILLER_11_9
*219 FILLER_11_91
*220 FILLER_12_22
*221 FILLER_12_29
*222 FILLER_12_3
*223 FILLER_12_45
*224 FILLER_12_53
*225 FILLER_12_67
*226 FILLER_12_90
*227 FILLER_13_3
*228 FILLER_13_40
*229 FILLER_13_52
*230 FILLER_13_57
*231 FILLER_13_74
*232 FILLER_14_19
*233 FILLER_14_32
*234 FILLER_14_43
*235 FILLER_14_72
*236 FILLER_14_90
*237 FILLER_15_23
*238 FILLER_15_57
*239 FILLER_15_90
*240 FILLER_16_18
*241 FILLER_16_49
*242 FILLER_16_90
*243 FILLER_17_55
*244 FILLER_17_57
*245 FILLER_18_14
*246 FILLER_18_29
*247 FILLER_18_58
*248 FILLER_18_90
*249 FILLER_19_43
*250 FILLER_19_90
*251 FILLER_1_23
*252 FILLER_1_29
*253 FILLER_1_66
*254 FILLER_1_75
*255 FILLER_1_77
*256 FILLER_1_85
*257 FILLER_20_29
*258 FILLER_20_3
*259 FILLER_20_83
*260 FILLER_20_90
*261 FILLER_21_19
*262 FILLER_21_62
*263 FILLER_22_29
*264 FILLER_22_3
*265 FILLER_22_90
*266 FILLER_23_3
*267 FILLER_23_90
*268 FILLER_2_28
*269 FILLER_2_40
*270 FILLER_2_44
*271 FILLER_2_57
*272 FILLER_2_91
*273 FILLER_3_23
*274 FILLER_3_31
*275 FILLER_3_90
*276 FILLER_4_15
*277 FILLER_4_27
*278 FILLER_4_29
*279 FILLER_4_3
*280 FILLER_4_35
*281 FILLER_4_80
*282 FILLER_4_90
*283 FILLER_5_18
*284 FILLER_5_30
*285 FILLER_5_54
*286 FILLER_5_57
*287 FILLER_5_6
*288 FILLER_5_63
*289 FILLER_6_10
*290 FILLER_6_17
*291 FILLER_6_25
*292 FILLER_6_29
*293 FILLER_6_3
*294 FILLER_6_37
*295 FILLER_6_66
*296 FILLER_6_90
*297 FILLER_7_23
*298 FILLER_7_35
*299 FILLER_7_47
*300 FILLER_7_57
*301 FILLER_8_19
*302 FILLER_8_27
*303 FILLER_8_29
*304 FILLER_8_41
*305 FILLER_8_90
*306 FILLER_9_18
*307 FILLER_9_30
*308 FILLER_9_34
*309 FILLER_9_55
*310 FILLER_9_57
*311 FILLER_9_6
*312 PHY_EDGE_ROW_0_2_Left_3
*313 PHY_EDGE_ROW_0_2_Right_27
*314 PHY_EDGE_ROW_10_Left_34
*315 PHY_EDGE_ROW_10_Right_13
*316 PHY_EDGE_ROW_11_Left_35
*317 PHY_EDGE_ROW_11_Right_14
*318 PHY_EDGE_ROW_12_Left_36
*319 PHY_EDGE_ROW_12_Right_15
*320 PHY_EDGE_ROW_13_Left_37
*321 PHY_EDGE_ROW_13_Right_16
*322 PHY_EDGE_ROW_14_Left_38
*323 PHY_EDGE_ROW_14_Right_17
*324 PHY_EDGE_ROW_15_Left_39
*325 PHY_EDGE_ROW_15_Right_18
*326 PHY_EDGE_ROW_16_Left_40
*327 PHY_EDGE_ROW_16_Right_19
*328 PHY_EDGE_ROW_17_Left_41
*329 PHY_EDGE_ROW_17_Right_20
*330 PHY_EDGE_ROW_18_Left_42
*331 PHY_EDGE_ROW_18_Right_21
*332 PHY_EDGE_ROW_19_Left_43
*333 PHY_EDGE_ROW_19_Right_22
*334 PHY_EDGE_ROW_1_2_Left_0
*335 PHY_EDGE_ROW_1_2_Right_4
*336 PHY_EDGE_ROW_20_Left_44
*337 PHY_EDGE_ROW_20_Right_23
*338 PHY_EDGE_ROW_21_Left_45
*339 PHY_EDGE_ROW_21_Right_24
*340 PHY_EDGE_ROW_22_Left_46
*341 PHY_EDGE_ROW_22_Right_25
*342 PHY_EDGE_ROW_23_Left_47
*343 PHY_EDGE_ROW_23_Right_26
*344 PHY_EDGE_ROW_2_2_Left_1
*345 PHY_EDGE_ROW_2_2_Right_5
*346 PHY_EDGE_ROW_3_2_Left_2
*347 PHY_EDGE_ROW_3_2_Right_6
*348 PHY_EDGE_ROW_4_Left_28
*349 PHY_EDGE_ROW_4_Right_7
*350 PHY_EDGE_ROW_5_Left_29
*351 PHY_EDGE_ROW_5_Right_8
*352 PHY_EDGE_ROW_6_Left_30
*353 PHY_EDGE_ROW_6_Right_9
*354 PHY_EDGE_ROW_7_Left_31
*355 PHY_EDGE_ROW_7_Right_10
*356 PHY_EDGE_ROW_8_Left_32
*357 PHY_EDGE_ROW_8_Right_11
*358 PHY_EDGE_ROW_9_Left_33
*359 PHY_EDGE_ROW_9_Right_12
*360 TAP_TAPCELL_ROW_0_2_84
*361 TAP_TAPCELL_ROW_0_2_85
*362 TAP_TAPCELL_ROW_10_61
*363 TAP_TAPCELL_ROW_10_62
*364 TAP_TAPCELL_ROW_11_63
*365 TAP_TAPCELL_ROW_12_64
*366 TAP_TAPCELL_ROW_12_65
*367 TAP_TAPCELL_ROW_13_66
*368 TAP_TAPCELL_ROW_14_67
*369 TAP_TAPCELL_ROW_14_68
*370 TAP_TAPCELL_ROW_15_69
*371 TAP_TAPCELL_ROW_16_70
*372 TAP_TAPCELL_ROW_16_71
*373 TAP_TAPCELL_ROW_17_72
*374 TAP_TAPCELL_ROW_18_73
*375 TAP_TAPCELL_ROW_18_74
*376 TAP_TAPCELL_ROW_19_75
*377 TAP_TAPCELL_ROW_1_2_48
*378 TAP_TAPCELL_ROW_20_76
*379 TAP_TAPCELL_ROW_20_77
*380 TAP_TAPCELL_ROW_21_78
*381 TAP_TAPCELL_ROW_22_79
*382 TAP_TAPCELL_ROW_22_80
*383 TAP_TAPCELL_ROW_23_81
*384 TAP_TAPCELL_ROW_23_82
*385 TAP_TAPCELL_ROW_23_83
*386 TAP_TAPCELL_ROW_2_2_49
*387 TAP_TAPCELL_ROW_3_2_50
*388 TAP_TAPCELL_ROW_4_51
*389 TAP_TAPCELL_ROW_4_52
*390 TAP_TAPCELL_ROW_4_53
*391 TAP_TAPCELL_ROW_5_54
*392 TAP_TAPCELL_ROW_6_55
*393 TAP_TAPCELL_ROW_6_56
*394 TAP_TAPCELL_ROW_7_57
*395 TAP_TAPCELL_ROW_8_58
*396 TAP_TAPCELL_ROW_8_59
*397 TAP_TAPCELL_ROW_9_60
*398 _057_
*399 _058_
*400 _059_
*401 _060_
*402 _061_
*403 _062_
*404 _063_
*405 _064_
*406 _065_
*407 _066_
*408 _067_
*409 _068_
*410 _069_
*411 _070_
*412 _071_
*413 _072_
*414 _073_
*415 _074_
*416 _075_
*417 _076_
*418 _077_
*419 _078_
*420 _079_
*421 _080_
*422 _081_
*423 _082_
*424 _083_
*425 _084_
*426 _085_
*427 _086_
*428 _087_
*429 _088_
*430 _089_
*431 _090_
*432 _091_
*433 _092_
*434 _093_
*435 _094_
*436 _095_
*437 _096_
*438 _097_
*439 _098_
*440 _099_
*441 _100_
*442 _101_
*443 _102_
*444 _103_
*445 _104_
*446 _105_
*447 _106_
*448 _107_
*449 _108_
*450 _109_
*451 _110_
*452 _111_
*453 _112_
*454 _113_
*455 _114_
*456 _115_
*457 _116_
*458 _117_
*459 _118_
*460 _119_
*461 _120_
*462 _121_
*463 _122_
*464 _123_
*465 _124_
*466 _125_
*467 _126_
*468 _127_
*469 _128_
*470 _129_
*471 _130_
*472 _131_
*473 _132_
*474 _133_
*475 _134_
*476 _136_
*477 fanout39
*478 fanout40
*479 fanout41
*480 fanout42
*481 fanout43
*482 gpio_control_block_44
*483 gpio_logic_high
*484 hold1
*485 hold10
*486 hold11
*487 hold12
*488 hold13
*489 hold14
*490 hold15
*491 hold16
*492 hold17
*493 hold18
*494 hold19
*495 hold2
*496 hold20
*497 hold21
*498 hold22
*499 hold23
*500 hold24
*501 hold25
*502 hold26
*503 hold27
*504 hold28
*505 hold3
*506 hold4
*507 hold5
*508 hold6
*509 hold7
*510 hold8
*511 hold9
*512 input1
*513 input10
*514 input11
*515 input12
*516 input13
*517 input14
*518 input15
*519 input16
*520 input17
*521 input18
*522 input19
*523 input2
*524 input20
*525 input3
*526 input4
*527 input5
*528 input6
*529 input7
*530 input8
*531 input9
*532 output21
*533 output22
*534 output23
*535 output24
*536 output25
*537 output26
*538 output27
*539 output28
*540 output29
*541 output30
*542 output31
*543 output32
*544 output33
*545 output34
*546 output35
*547 output36
*548 output37
*549 output38

*PORTS
gpio_defaults[0] I
gpio_defaults[10] I
gpio_defaults[11] I
gpio_defaults[12] I
gpio_defaults[13] I
gpio_defaults[14] I
gpio_defaults[15] I
gpio_defaults[1] I
gpio_defaults[2] I
gpio_defaults[3] I
gpio_defaults[4] I
gpio_defaults[5] I
gpio_defaults[6] I
gpio_defaults[7] I
gpio_defaults[8] I
gpio_defaults[9] I
mgmt_gpio_in O
mgmt_gpio_oeb I
mgmt_gpio_out I
pad_gpio_ana_en O
pad_gpio_ana_pol O
pad_gpio_ana_sel O
pad_gpio_dm[0] O
pad_gpio_dm[1] O
pad_gpio_dm[2] O
pad_gpio_holdover O
pad_gpio_hys_trim O
pad_gpio_ib_mode_sel O
pad_gpio_in I
pad_gpio_inenb O
pad_gpio_out O
pad_gpio_outenb O
pad_gpio_slew_ctl[0] O
pad_gpio_slew_ctl[1] O
pad_gpio_slow_sel O
pad_gpio_vtrip_sel O
resetn I
resetn_out O
serial_clock I
serial_clock_out O
serial_data_in I
serial_data_out O
serial_load I
serial_load_out O
user_gpio_in O
user_gpio_oeb I
user_gpio_out I

*D_NET *1 0.00401547
*CONN
*P gpio_defaults[0] I
*I *507:A I *D sky130_fd_sc_hd__dlygate4sd3_1
*CAP
1 gpio_defaults[0] 0.00136567
2 *507:A 0.00136567
3 *507:A *485:A 0.000231787
4 *507:A *486:A 4.75576e-05
5 *507:A *495:A 0
6 *507:A *511:A 9.97536e-06
7 *507:A *512:A 0.000994803
*RES
1 gpio_defaults[0] *507:A 20.97 
*END

*D_NET *2 0.00358337
*CONN
*P gpio_defaults[10] I
*I *485:A I *D sky130_fd_sc_hd__dlygate4sd3_1
*CAP
1 gpio_defaults[10] 0.00110209
2 *485:A 0.00110209
3 *485:A pad_gpio_outenb 0.000845846
4 *485:A *487:A 0
5 *485:A *506:A 2.15738e-05
6 *485:A *511:A 0.000196654
7 *485:A *544:A 8.33308e-05
8 *507:A *485:A 0.000231787
*RES
1 gpio_defaults[10] *485:A 19.8 
*END

*D_NET *3 0.00165343
*CONN
*P gpio_defaults[11] I
*I *487:A I *D sky130_fd_sc_hd__dlygate4sd3_1
*CAP
1 gpio_defaults[11] 0.000631891
2 *487:A 0.000631891
3 *487:A pad_gpio_outenb 5.71394e-05
4 *487:A pad_gpio_vtrip_sel 8.23457e-05
5 *487:A *508:A 2.38193e-05
6 *487:A *527:A 0
7 *487:A *529:A 0.000179733
8 *487:A *177:10 4.66108e-05
9 *485:A *487:A 0
*RES
1 gpio_defaults[11] *487:A 12.765 
*END

*D_NET *4 0.00478918
*CONN
*P gpio_defaults[12] I
*I *508:A I *D sky130_fd_sc_hd__dlygate4sd3_1
*CAP
1 gpio_defaults[12] 0.00105259
2 *508:A 0.00105259
3 *508:A *484:A 0.000885856
4 *508:A *486:A 0.00102714
5 *508:A *509:A 0.000337716
6 *508:A *511:A 0.00026503
7 *508:A *512:A 0.000144443
8 *508:A *527:A 0
9 *487:A *508:A 2.38193e-05
*RES
1 gpio_defaults[12] *508:A 32.23 
*END

*D_NET *5 0.00823877
*CONN
*P gpio_defaults[13] I
*I *527:A I *D sky130_fd_sc_hd__clkbuf_1
*CAP
1 gpio_defaults[13] 0.00219946
2 *527:A 0.00219946
3 *527:A pad_gpio_out 0.000504685
4 *527:A *399:A 0.00030448
5 *527:A *412:B 2.19562e-06
6 *527:A *423:A 1.59211e-05
7 *527:A *423:B 0.000386638
8 *527:A *453:D 0.000249282
9 *527:A *453:RESET_B 3.00381e-05
10 *527:A *453:SET_B 2.08071e-05
11 *527:A *471:CLK 3.57349e-05
12 *527:A *472:CLK 0.000182912
13 *527:A *528:A 0.000260858
14 *527:A *538:A 0.000231415
15 *527:A *540:A 0.000692779
16 *527:A *39:118 2.82846e-05
17 *527:A *39:138 0.00014036
18 *527:A *114:14 5.83121e-06
19 *527:A *116:18 0.000455049
20 *527:A *147:29 4.19883e-05
21 *527:A *147:48 6.07575e-06
22 *527:A *148:104 9.17647e-05
23 *527:A *155:10 0.000152761
24 *487:A *527:A 0
25 *508:A *527:A 0
*RES
1 gpio_defaults[13] *527:A 48.46 
*END

*D_NET *7 0.00524363
*CONN
*P gpio_defaults[15] I
*I *528:A I *D sky130_fd_sc_hd__clkbuf_1
*CAP
1 gpio_defaults[15] 0.00144211
2 *528:A 0.00144211
3 *528:A pad_gpio_ib_mode_sel 0.000398928
4 *528:A *422:A 1.5895e-05
5 *528:A *423:A 5.63341e-05
6 *528:A *475:D 1.91597e-05
7 *528:A *495:A 0.000239416
8 *528:A *505:A 0.000269551
9 *528:A *506:A 0.000596448
10 *528:A *116:18 0.000405222
11 *528:A *149:62 7.92152e-05
12 *528:A *176:6 1.83756e-05
13 *527:A *528:A 0.000260858
*RES
1 gpio_defaults[15] *528:A 33.79 
*END

*D_NET *9 0.00365183
*CONN
*P gpio_defaults[2] I
*I *495:A I *D sky130_fd_sc_hd__dlygate4sd3_1
*CAP
1 gpio_defaults[2] 0.00134227
2 *495:A 0.00134227
3 *495:A *422:A 0.000379069
4 *495:A *450:RESET_B 0.000303987
5 *495:A *484:A 1.03833e-05
6 *495:A *486:A 0
7 *495:A *505:A 0
8 *495:A *510:A 3.44333e-05
9 *495:A *116:18 0
10 *495:A *177:10 0
11 *507:A *495:A 0
12 *528:A *495:A 0.000239416
*RES
1 gpio_defaults[2] *495:A 26.605 
*END

*D_NET *10 0.0028792
*CONN
*P gpio_defaults[3] I
*I *484:A I *D sky130_fd_sc_hd__dlygate4sd3_1
*CAP
1 gpio_defaults[3] 0.000879855
2 *484:A 0.000879855
3 *484:A *422:B 2.49909e-05
4 *484:A *505:A 0.000198258
5 *495:A *484:A 1.03833e-05
6 *508:A *484:A 0.000885856
*RES
1 gpio_defaults[3] *484:A 22.63 
*END

*D_NET *11 0.00419978
*CONN
*P gpio_defaults[4] I
*I *505:A I *D sky130_fd_sc_hd__dlygate4sd3_1
*CAP
1 gpio_defaults[4] 0.0014983
2 *505:A 0.0014983
3 *505:A *422:A 0.000453648
4 *505:A *449:RESET_B 9.27255e-06
5 *505:A *509:A 3.17852e-05
6 *505:A *510:A 0
7 *505:A *511:A 0
8 *505:A *530:A 0.000120655
9 *505:A *152:32 8.48262e-05
10 *505:A *177:10 3.51805e-05
11 *484:A *505:A 0.000198258
12 *495:A *505:A 0
13 *528:A *505:A 0.000269551
*RES
1 gpio_defaults[4] *505:A 24.96 
*END

*D_NET *12 0.00497374
*CONN
*P gpio_defaults[5] I
*I *509:A I *D sky130_fd_sc_hd__dlygate4sd3_1
*CAP
1 gpio_defaults[5] 0.00193396
2 *509:A 0.00193396
3 *509:A *486:A 0.000690096
4 *509:A *510:A 3.76946e-05
5 *509:A *511:A 8.53113e-06
6 *505:A *509:A 3.17852e-05
7 *508:A *509:A 0.000337716
*RES
1 gpio_defaults[5] *509:A 32.185 
*END

*D_NET *13 0.00331383
*CONN
*P gpio_defaults[6] I
*I *510:A I *D sky130_fd_sc_hd__dlygate4sd3_1
*CAP
1 gpio_defaults[6] 0.00132523
2 *510:A 0.00132523
3 *510:A *408:A_N 0.000139245
4 *510:A *457:SET_B 0.000179331
5 *510:A *461:D 0
6 *510:A *511:A 0.000172963
7 *510:A *177:10 9.96961e-05
8 *495:A *510:A 3.44333e-05
9 *505:A *510:A 0
10 *509:A *510:A 3.76946e-05
*RES
1 gpio_defaults[6] *510:A 20.715 
*END

*D_NET *14 0.00486347
*CONN
*P gpio_defaults[7] I
*I *511:A I *D sky130_fd_sc_hd__dlygate4sd3_1
*CAP
1 gpio_defaults[7] 0.00105997
2 *511:A 0.00105997
3 *511:A pad_gpio_outenb 0.000128039
4 *511:A *486:A 0.000221836
5 *511:A *512:A 0.000162751
6 *511:A *515:A 4.82919e-05
7 *511:A *516:A 0.000244445
8 *511:A *525:A 0.000291906
9 *511:A *526:A 0.000155491
10 *511:A *544:A 8.33308e-05
11 *511:A *116:18 0.00066769
12 *511:A *177:10 8.65961e-05
13 *485:A *511:A 0.000196654
14 *505:A *511:A 0
15 *507:A *511:A 9.97536e-06
16 *508:A *511:A 0.00026503
17 *509:A *511:A 8.53113e-06
18 *510:A *511:A 0.000172963
*RES
1 gpio_defaults[7] *511:A 31.36 
*END

*D_NET *15 0.00321567
*CONN
*P gpio_defaults[8] I
*I *486:A I *D sky130_fd_sc_hd__dlygate4sd3_1
*CAP
1 gpio_defaults[8] 0.000466343
2 *486:A 0.000466343
3 *486:A *422:A 1.56296e-05
4 *486:A *506:A 6.3608e-05
5 *486:A *512:A 4.80563e-05
6 *486:A *544:A 0.000169055
7 *495:A *486:A 0
8 *507:A *486:A 4.75576e-05
9 *508:A *486:A 0.00102714
10 *509:A *486:A 0.000690096
11 *511:A *486:A 0.000221836
*RES
1 gpio_defaults[8] *486:A 22.18 
*END

*D_NET *16 0.00267145
*CONN
*P gpio_defaults[9] I
*I *506:A I *D sky130_fd_sc_hd__dlygate4sd3_1
*CAP
1 gpio_defaults[9] 0.000680644
2 *506:A 0.000680644
3 *506:A pad_gpio_ib_mode_sel 0.000335978
4 *506:A *422:A 0.000120655
5 *506:A *543:A 0.000171899
6 *485:A *506:A 2.15738e-05
7 *486:A *506:A 6.3608e-05
8 *528:A *506:A 0.000596448
*RES
1 gpio_defaults[9] *506:A 17.025 
*END

*D_NET *17 0.000847276
*CONN
*P mgmt_gpio_in O
*I *532:X O *D sky130_fd_sc_hd__buf_12
*CAP
1 mgmt_gpio_in 0.000423638
2 *532:X 0.000423638
3 mgmt_gpio_in *519:A 0
4 mgmt_gpio_in *521:A 0
5 mgmt_gpio_in *532:A 0
*RES
1 *532:X mgmt_gpio_in 10.1239 
*END

*D_NET *18 0.000820667
*CONN
*P mgmt_gpio_oeb I
*I *518:A I *D sky130_fd_sc_hd__clkbuf_1
*CAP
1 mgmt_gpio_oeb 0.000322542
2 *518:A 0.000322542
3 *518:A *200:A 0
4 *518:A *415:A1 0.000175583
5 *518:A *519:A 0
6 *518:A *524:A 0
*RES
1 mgmt_gpio_oeb *518:A 6.7483 
*END

*D_NET *19 0.000510805
*CONN
*P mgmt_gpio_out I
*I *519:A I *D sky130_fd_sc_hd__clkbuf_1
*CAP
1 mgmt_gpio_out 0.000255403
2 *519:A 0.000255403
3 mgmt_gpio_in *519:A 0
4 *518:A *519:A 0
*RES
1 mgmt_gpio_out *519:A 7.09217 
*END

*D_NET *20 0.00303545
*CONN
*P pad_gpio_ana_en O
*I *533:X O *D sky130_fd_sc_hd__buf_12
*CAP
1 pad_gpio_ana_en 0.000772511
2 *533:X 0.000772511
3 pad_gpio_ana_en pad_gpio_dm[0] 0
4 pad_gpio_ana_en pad_gpio_dm[1] 0
5 pad_gpio_ana_en *401:B 4.27883e-06
6 pad_gpio_ana_en *425:A 6.83684e-05
7 pad_gpio_ana_en *492:A 0.000364625
8 pad_gpio_ana_en *533:A 0.000442874
9 pad_gpio_ana_en *134:30 0.000458552
10 pad_gpio_ana_en *144:42 3.60481e-05
11 pad_gpio_ana_en *144:44 0.000115676
*RES
1 *533:X pad_gpio_ana_en 16.1781 
*END

*D_NET *21 0.00116974
*CONN
*P pad_gpio_ana_pol O
*I *534:X O *D sky130_fd_sc_hd__buf_12
*CAP
1 pad_gpio_ana_pol 0.000459347
2 *534:X 0.000435177
3 *21:15 2.41699e-05
4 pad_gpio_ana_pol pad_gpio_slew_ctl[0] 0
5 pad_gpio_ana_pol *429:B 6.78039e-05
6 pad_gpio_ana_pol *456:RESET_B 2.79137e-05
7 pad_gpio_ana_pol *476:A 0.00015533
8 *21:15 pad_gpio_inenb 0
9 *21:15 *33:15 0
*RES
1 *534:X pad_gpio_ana_pol 10.9925 
2 pad_gpio_ana_pol *21:15 0.0481333 
*END

*D_NET *22 0.00148956
*CONN
*P pad_gpio_ana_sel O
*I *535:X O *D sky130_fd_sc_hd__buf_12
*CAP
1 pad_gpio_ana_sel 0.000578907
2 *535:X 0.000578907
3 pad_gpio_ana_sel pad_gpio_inenb 0
4 pad_gpio_ana_sel pad_gpio_slew_ctl[1] 0
5 pad_gpio_ana_sel *428:B 3.09164e-05
6 pad_gpio_ana_sel *455:RESET_B 3.59784e-05
7 pad_gpio_ana_sel *476:A 3.1176e-05
8 pad_gpio_ana_sel *531:A 6.71882e-05
9 pad_gpio_ana_sel *535:A 0.000116158
10 pad_gpio_ana_sel *146:55 5.03268e-05
*RES
1 *535:X pad_gpio_ana_sel 9.0981 
*END

*D_NET *23 0.00157918
*CONN
*P pad_gpio_dm[0] O
*I *536:X O *D sky130_fd_sc_hd__buf_12
*CAP
1 pad_gpio_dm[0] 0.000596101
2 *536:X 0.000596101
3 pad_gpio_dm[0] *424:B 0
4 pad_gpio_dm[0] *451:SET_B 6.57949e-06
5 pad_gpio_dm[0] *533:A 0.000173865
6 pad_gpio_dm[0] *536:A 0.000120186
7 pad_gpio_dm[0] *33:15 0
8 pad_gpio_dm[0] *123:22 8.63479e-05
9 pad_gpio_ana_en pad_gpio_dm[0] 0
*RES
1 *536:X pad_gpio_dm[0] 8.52463 
*END

*D_NET *24 0.00425659
*CONN
*P pad_gpio_dm[1] O
*I *537:X O *D sky130_fd_sc_hd__buf_12
*CAP
1 pad_gpio_dm[1] 0.00201172
2 *537:X 0.00201172
3 pad_gpio_dm[1] *469:RESET_B 0
4 pad_gpio_dm[1] *500:A 0.000150299
5 pad_gpio_dm[1] *537:A 8.28535e-05
6 pad_gpio_dm[1] *35:15 0
7 pad_gpio_dm[1] *116:26 0
8 pad_gpio_ana_en pad_gpio_dm[1] 0
*RES
1 *537:X pad_gpio_dm[1] 12.6611 
*END

*D_NET *25 0.00135401
*CONN
*P pad_gpio_dm[2] O
*I *538:X O *D sky130_fd_sc_hd__buf_12
*CAP
1 pad_gpio_dm[2] 0.000500811
2 *538:X 0.000476641
3 *25:15 2.41699e-05
4 pad_gpio_dm[2] *400:A_N 1.99427e-05
5 pad_gpio_dm[2] *441:A 8.23457e-05
6 pad_gpio_dm[2] *453:SET_B 0.000120054
7 pad_gpio_dm[2] *538:A 4.66108e-05
8 pad_gpio_dm[2] *145:24 8.34394e-05
9 *25:15 pad_gpio_holdover 0
10 *25:15 *27:15 0
*RES
1 *538:X pad_gpio_dm[2] 11.7575 
2 pad_gpio_dm[2] *25:15 0.0481333 
*END

*D_NET *26 0.00128047
*CONN
*P pad_gpio_holdover O
*I *539:X O *D sky130_fd_sc_hd__buf_12
*CAP
1 pad_gpio_holdover 0.000538832
2 *539:X 0.000538832
3 pad_gpio_holdover pad_gpio_out 0
4 pad_gpio_holdover *441:A 0.000127011
5 pad_gpio_holdover *453:SET_B 1.79483e-05
6 pad_gpio_holdover *457:RESET_B 5.78492e-05
7 pad_gpio_holdover *117:18 0
8 *25:15 pad_gpio_holdover 0
*RES
1 *539:X pad_gpio_holdover 6.5879 
*END

*D_NET *27 0.000886422
*CONN
*P pad_gpio_hys_trim O
*I *540:X O *D sky130_fd_sc_hd__buf_12
*CAP
1 pad_gpio_hys_trim 0.000429454
2 *540:X 0.000408994
3 *27:15 2.04593e-05
4 pad_gpio_hys_trim *540:A 0
5 pad_gpio_hys_trim *146:53 2.75145e-05
6 pad_gpio_hys_trim *182:12 0
7 *27:15 pad_gpio_slew_ctl[1] 0
8 *25:15 *27:15 0
*RES
1 *540:X pad_gpio_hys_trim 10.5275 
2 pad_gpio_hys_trim *27:15 0.0481333 
*END

*D_NET *28 0.00257662
*CONN
*P pad_gpio_ib_mode_sel O
*I *541:X O *D sky130_fd_sc_hd__buf_12
*CAP
1 pad_gpio_ib_mode_sel 0.000643509
2 *541:X 0.00062676
3 *28:15 1.67487e-05
4 pad_gpio_ib_mode_sel pad_gpio_out 0.000419392
5 pad_gpio_ib_mode_sel pad_gpio_outenb 0
6 pad_gpio_ib_mode_sel *421:A 1.19928e-05
7 pad_gpio_ib_mode_sel *423:A 0
8 pad_gpio_ib_mode_sel *543:A 0.000123313
9 *28:15 pad_gpio_vtrip_sel 0
10 *28:15 *32:15 0
11 *506:A pad_gpio_ib_mode_sel 0.000335978
12 *528:A pad_gpio_ib_mode_sel 0.000398928
*RES
1 *541:X pad_gpio_ib_mode_sel 17.2775 
2 pad_gpio_ib_mode_sel *28:15 0.0481333 
*END

*D_NET *29 0.000629601
*CONN
*P pad_gpio_in I
*I *520:A I *D sky130_fd_sc_hd__buf_1
*CAP
1 pad_gpio_in 0.000314801
2 *520:A 0.000314801
3 *520:A *35:15 0
*RES
1 pad_gpio_in *520:A 6.26023 
*END

*D_NET *30 0.00125484
*CONN
*P pad_gpio_inenb O
*I *542:X O *D sky130_fd_sc_hd__buf_12
*CAP
1 pad_gpio_inenb 0.000551159
2 *542:X 0.000551159
3 pad_gpio_inenb *429:A 0.000146827
4 pad_gpio_inenb *429:B 5.69898e-06
5 pad_gpio_ana_sel pad_gpio_inenb 0
6 *21:15 pad_gpio_inenb 0
*RES
1 *542:X pad_gpio_inenb 9.69177 
*END

*D_NET *31 0.00242017
*CONN
*P pad_gpio_out O
*I *543:X O *D sky130_fd_sc_hd__buf_12
*CAP
1 pad_gpio_out 0.000473292
2 *543:X 0.000473292
3 pad_gpio_out pad_gpio_vtrip_sel 0
4 pad_gpio_out *421:A 7.96794e-05
5 pad_gpio_out *421:B 4.82863e-05
6 pad_gpio_out *423:A 4.34042e-05
7 pad_gpio_out *448:RESET_B 6.78039e-05
8 pad_gpio_out *147:164 0.00031033
9 pad_gpio_holdover pad_gpio_out 0
10 pad_gpio_ib_mode_sel pad_gpio_out 0.000419392
11 *527:A pad_gpio_out 0.000504685
*RES
1 *543:X pad_gpio_out 15.202 
*END

*D_NET *32 0.00322463
*CONN
*P pad_gpio_outenb O
*I *544:X O *D sky130_fd_sc_hd__buf_12
*CAP
1 pad_gpio_outenb 0.000746914
2 *544:X 0.000730165
3 *32:15 1.67487e-05
4 pad_gpio_outenb pad_gpio_vtrip_sel 0.000101068
5 pad_gpio_outenb *423:A 0.000126748
6 pad_gpio_outenb *529:A 0.000333475
7 pad_gpio_outenb *547:A 0.00012208
8 pad_gpio_outenb *177:10 1.6408e-05
9 pad_gpio_ib_mode_sel pad_gpio_outenb 0
10 *485:A pad_gpio_outenb 0.000845846
11 *487:A pad_gpio_outenb 5.71394e-05
12 *511:A pad_gpio_outenb 0.000128039
13 *28:15 *32:15 0
*RES
1 *544:X pad_gpio_outenb 19.6175 
2 pad_gpio_outenb *32:15 0.0481333 
*END

*D_NET *33 0.0013692
*CONN
*P pad_gpio_slew_ctl[0] O
*I *545:X O *D sky130_fd_sc_hd__buf_12
*CAP
1 pad_gpio_slew_ctl[0] 0.000652946
2 *545:X 0.000632487
3 *33:15 2.04593e-05
4 pad_gpio_slew_ctl[0] *542:A 6.33103e-05
5 pad_gpio_ana_pol pad_gpio_slew_ctl[0] 0
6 pad_gpio_dm[0] *33:15 0
7 *21:15 *33:15 0
*RES
1 *545:X pad_gpio_slew_ctl[0] 13.2275 
2 pad_gpio_slew_ctl[0] *33:15 0.0481333 
*END

*D_NET *34 0.00223018
*CONN
*P pad_gpio_slew_ctl[1] O
*I *482:LO O *D sky130_fd_sc_hd__conb_1
*CAP
1 pad_gpio_slew_ctl[1] 0.00100245
2 *482:LO 0.00100245
3 pad_gpio_slew_ctl[1] *173:14 0.000225285
4 pad_gpio_ana_sel pad_gpio_slew_ctl[1] 0
5 *27:15 pad_gpio_slew_ctl[1] 0
*RES
1 *482:LO pad_gpio_slew_ctl[1] 8.07057 
*END

*D_NET *35 0.00382767
*CONN
*P pad_gpio_slow_sel O
*I *546:X O *D sky130_fd_sc_hd__buf_12
*CAP
1 pad_gpio_slow_sel 0.000838084
2 *546:X 0.000821335
3 *35:15 1.67487e-05
4 pad_gpio_slow_sel *411:A_N 0.000223617
5 pad_gpio_slow_sel *411:B 2.45928e-05
6 pad_gpio_slow_sel *425:A 6.84859e-05
7 pad_gpio_slow_sel *432:A 0.000227789
8 pad_gpio_slow_sel *469:CLK 4.85763e-05
9 pad_gpio_slow_sel *469:D 2.79137e-05
10 pad_gpio_slow_sel *492:A 0.000660156
11 pad_gpio_slow_sel *546:A 0.000336212
12 pad_gpio_slow_sel *134:18 0.000534157
13 pad_gpio_slow_sel *134:30 0
14 pad_gpio_dm[1] *35:15 0
15 *520:A *35:15 0
*RES
1 *546:X pad_gpio_slow_sel 24.6125 
2 pad_gpio_slow_sel *35:15 0.0481333 
*END

*D_NET *36 0.0022973
*CONN
*P pad_gpio_vtrip_sel O
*I *547:X O *D sky130_fd_sc_hd__buf_12
*CAP
1 pad_gpio_vtrip_sel 0.000633934
2 *547:X 0.000633934
3 pad_gpio_vtrip_sel *448:RESET_B 3.41108e-05
4 pad_gpio_vtrip_sel *450:RESET_B 9.4087e-05
5 pad_gpio_vtrip_sel *457:RESET_B 9.83417e-05
6 pad_gpio_vtrip_sel *547:A 0.000566154
7 pad_gpio_vtrip_sel *117:18 5.33294e-05
8 pad_gpio_out pad_gpio_vtrip_sel 0
9 pad_gpio_outenb pad_gpio_vtrip_sel 0.000101068
10 *487:A pad_gpio_vtrip_sel 8.23457e-05
11 *28:15 pad_gpio_vtrip_sel 0
*RES
1 *547:X pad_gpio_vtrip_sel 13.2098 
*END

*D_NET *37 0.0058016
*CONN
*P resetn I
*I *200:A I *D sky130_fd_sc_hd__clkbuf_8
*I *481:A I *D sky130_fd_sc_hd__clkbuf_2
*CAP
1 resetn 0.0011597
2 *200:A 0.0010383
3 *481:A 2.2266e-05
4 *37:21 0.00222026
5 *200:A *415:A0 9.30787e-05
6 *200:A *415:A1 0
7 *200:A *458:D 0
8 *200:A *480:A 0.000213668
9 *200:A *490:A 3.24923e-05
10 *200:A *549:A 0
11 *200:A *39:171 8.83851e-05
12 *200:A *152:32 0.00062503
13 *200:A *178:10 8.15676e-05
14 *481:A *416:A 4.82919e-05
15 *37:21 *416:B 0
16 *37:21 *549:A 2.54152e-05
17 *37:21 *39:9 0.000153151
18 *37:21 *43:5 0
19 *37:21 *134:18 0
20 *518:A *200:A 0
*RES
1 resetn *37:21 13.2174 
2 *37:21 *481:A 4.05 
3 *37:21 *200:A 23.85 
*END

*D_NET *38 0.000474452
*CONN
*P resetn_out O
*I *200:X O *D sky130_fd_sc_hd__clkbuf_8
*CAP
1 resetn_out 0.000237226
2 *200:X 0.000237226
3 resetn_out serial_clock_out 0
4 resetn_out serial_load_out 0
5 resetn_out user_gpio_in 0
*RES
1 *200:X resetn_out 6.67217 
*END

*D_NET *39 0.0227213
*CONN
*P serial_clock I
*I *458:CLK I *D sky130_fd_sc_hd__dfrtp_1
*I *465:CLK I *D sky130_fd_sc_hd__dfrtp_1
*I *472:CLK I *D sky130_fd_sc_hd__dfrtp_1
*I *473:CLK I *D sky130_fd_sc_hd__dfrtp_1
*I *461:CLK I *D sky130_fd_sc_hd__dfrtp_1
*I *462:CLK I *D sky130_fd_sc_hd__dfrtp_1
*I *201:A I *D sky130_fd_sc_hd__clkbuf_8
*I *460:CLK I *D sky130_fd_sc_hd__dfrtp_1
*I *459:CLK I *D sky130_fd_sc_hd__dfrtp_1
*I *471:CLK I *D sky130_fd_sc_hd__dfrtp_1
*I *399:A I *D sky130_fd_sc_hd__inv_2
*I *463:CLK I *D sky130_fd_sc_hd__dfrtp_1
*I *464:CLK I *D sky130_fd_sc_hd__dfrtp_1
*I *468:CLK I *D sky130_fd_sc_hd__dfrtp_1
*I *470:CLK I *D sky130_fd_sc_hd__dfrtp_1
*I *467:CLK I *D sky130_fd_sc_hd__dfrtp_1
*I *469:CLK I *D sky130_fd_sc_hd__dfrtp_1
*I *466:CLK I *D sky130_fd_sc_hd__dfrtp_1
*CAP
1 serial_clock 0.000442486
2 *458:CLK 0.000161378
3 *465:CLK 0
4 *472:CLK 9.1128e-05
5 *473:CLK 0
6 *461:CLK 0.000247867
7 *462:CLK 0.000181566
8 *201:A 3.61979e-05
9 *460:CLK 0
10 *459:CLK 0.000396488
11 *471:CLK 0.000300068
12 *399:A 0.000240791
13 *463:CLK 0
14 *464:CLK 7.80256e-05
15 *468:CLK 0.000316826
16 *470:CLK 4.93979e-05
17 *467:CLK 0
18 *469:CLK 0.000361955
19 *466:CLK 4.83096e-05
20 *39:193 0.000555665
21 *39:180 0.000240896
22 *39:171 0.000225052
23 *39:158 0.00112185
24 *39:146 0.000767865
25 *39:138 0.000344027
26 *39:120 0.000540859
27 *39:118 0.000295679
28 *39:107 0.000824934
29 *39:86 0.00117543
30 *39:76 0.000723852
31 *39:63 0.000824997
32 *39:45 0.000263533
33 *39:30 0.0008197
34 *39:22 0.000672501
35 *39:13 0.00121481
36 *39:9 0.00163013
37 *399:A *413:B 0.0002268
38 *399:A *418:B 0.000145961
39 *399:A *475:CLK 2.06295e-05
40 *399:A *494:A 2.64559e-05
41 *399:A *514:A 0.000120655
42 *399:A *522:A 7.79847e-05
43 *399:A *114:14 2.45351e-05
44 *458:CLK *458:D 7.33465e-05
45 *458:CLK *521:A 0
46 *458:CLK *532:A 5.89343e-05
47 *459:CLK *459:D 7.06674e-05
48 *459:CLK *490:A 4.36422e-06
49 *461:CLK *449:CLK_N 0.000220466
50 *461:CLK *461:D 6.33103e-05
51 *461:CLK *530:A 0.000160658
52 *461:CLK *148:27 0.000100142
53 *461:CLK *152:32 0
54 *462:CLK *462:D 1.08758e-05
55 *462:CLK *475:CLK 1.03733e-05
56 *462:CLK *475:D 0.000153635
57 *464:CLK *464:D 1.76441e-05
58 *468:CLK *468:D 7.35813e-05
59 *468:CLK *488:A 4.82919e-05
60 *468:CLK *123:22 0.000395828
61 *468:CLK *163:18 3.64998e-06
62 *469:CLK *467:RESET_B 0
63 *469:CLK *469:D 0
64 *469:CLK *546:A 2.64607e-05
65 *469:CLK *43:169 0.000384807
66 *471:CLK *471:D 6.97202e-05
67 *471:CLK *494:A 0.000186473
68 *471:CLK *155:10 0.000188125
69 *472:CLK *463:D 2.90383e-05
70 *472:CLK *123:22 3.08152e-05
71 *39:9 *416:B 0
72 *39:9 *458:D 3.98213e-05
73 *39:9 *521:A 0
74 *39:9 *43:5 0
75 *39:13 *458:D 1.4389e-05
76 *39:13 *521:A 5.83121e-06
77 *39:22 *466:D 6.07498e-06
78 *39:30 *504:A 0.000159305
79 *39:30 *43:9 0.000214921
80 *39:45 *467:RESET_B 4.70393e-05
81 *39:45 *504:A 7.35813e-05
82 *39:63 *466:D 3.13288e-05
83 *39:63 *504:A 5.21627e-05
84 *39:63 *43:9 0
85 *39:63 *163:18 7.43365e-05
86 *39:76 *504:A 1.53032e-05
87 *39:76 *43:9 0
88 *39:76 *123:22 0.000141081
89 *39:86 *437:A 2.16469e-05
90 *39:86 *43:9 4.78816e-05
91 *39:107 *437:A 4.91189e-05
92 *39:107 *463:D 1.33293e-05
93 *39:107 *464:D 0
94 *39:107 *149:50 0.000188727
95 *39:107 *169:10 0
96 *39:118 *116:18 0.000263519
97 *39:118 *123:22 0.000353491
98 *39:138 *123:22 6.3756e-05
99 *39:146 *523:A 6.5132e-06
100 *39:146 *123:22 0.000148123
101 *39:146 *145:24 0.000230138
102 *39:158 *490:A 0.000117984
103 *39:158 *515:A 3.69664e-05
104 *39:158 *523:A 4.61325e-05
105 *39:158 *525:A 7.63679e-05
106 *39:158 *526:A 0.000127065
107 *39:158 *115:30 4.66108e-05
108 *39:158 *134:18 5.42849e-05
109 *39:158 *145:24 0.000155497
110 *39:171 *460:D 3.61231e-05
111 *39:171 *490:A 0.000130716
112 *39:171 *152:32 9.42966e-05
113 *39:180 *460:D 4.18603e-06
114 *39:180 *515:A 0
115 *39:180 *152:32 8.87475e-05
116 *39:193 *515:A 0
117 *39:193 *517:A 2.56866e-05
118 *39:193 *530:A 7.63281e-05
119 *39:193 *152:32 0.000142492
120 pad_gpio_slow_sel *469:CLK 4.85763e-05
121 *200:A *39:171 8.83851e-05
122 *527:A *399:A 0.00030448