*SPEF "ieee 1481-1999"
*DESIGN "gpio_control_block"
*DATE "18:36:29 Monday June 16, 2025"
*VENDOR "The OpenROAD Project"
*PROGRAM "OpenROAD"
*VERSION "edf00dff99f6c40d67a30c0e22a8191c5d2ed9d6"
*DESIGN_FLOW "NAME_SCOPE LOCAL" "PIN_CAP NONE"
*DIVIDER /
*DELIMITER :
*BUS_DELIMITER []
*T_UNIT 1 NS
*C_UNIT 1 PF
*R_UNIT 1 OHM
*L_UNIT 1 HENRY

*NAME_MAP
*1 gpio_defaults[0]
*2 gpio_defaults[10]
*3 gpio_defaults[11]
*4 gpio_defaults[12]
*5 gpio_defaults[13]
*6 gpio_defaults[14]
*7 gpio_defaults[15]
*8 gpio_defaults[1]
*9 gpio_defaults[2]
*10 gpio_defaults[3]
*11 gpio_defaults[4]
*12 gpio_defaults[5]
*13 gpio_defaults[6]
*14 gpio_defaults[7]
*15 gpio_defaults[8]
*16 gpio_defaults[9]
*17 mgmt_gpio_in
*18 mgmt_gpio_oeb
*19 mgmt_gpio_out
*20 pad_gpio_ana_en
*21 pad_gpio_ana_pol
*22 pad_gpio_ana_sel
*23 pad_gpio_dm[0]
*24 pad_gpio_dm[1]
*25 pad_gpio_dm[2]
*26 pad_gpio_holdover
*27 pad_gpio_hys_trim
*28 pad_gpio_ib_mode_sel
*29 pad_gpio_in
*30 pad_gpio_inenb
*31 pad_gpio_out
*32 pad_gpio_outenb
*33 pad_gpio_slew_ctl[0]
*34 net44
*35 pad_gpio_slow_sel
*36 pad_gpio_vtrip_sel
*37 resetn
*38 resetn_out
*39 serial_clock
*40 serial_clock_out
*41 serial_data_in
*42 serial_data_out
*43 serial_load
*44 serial_load_out
*45 user_gpio_in
*46 user_gpio_oeb
*47 user_gpio_out
*52 _000_
*53 _001_
*54 _002_
*55 _003_
*56 _004_
*57 _005_
*58 _006_
*59 _007_
*60 _008_
*61 _009_
*62 _010_
*63 _011_
*64 _012_
*65 _013_
*66 _014_
*67 _015_
*68 _016_
*69 _017_
*70 _018_
*71 _019_
*72 _020_
*73 _021_
*74 _022_
*75 _023_
*76 _024_
*77 _025_
*78 _026_
*79 _027_
*80 _028_
*81 _029_
*82 _030_
*83 _031_
*84 _032_
*85 _033_
*86 _034_
*87 _035_
*88 _036_
*89 _037_
*90 _038_
*91 _039_
*92 _040_
*93 _041_
*94 _042_
*95 _043_
*96 _044_
*97 _045_
*98 _046_
*99 _047_
*100 _048_
*101 _049_
*102 _050_
*103 _051_
*104 _052_
*105 _053_
*106 _054_
*107 _055_
*108 _056_
*109 gpio_logic1
*110 gpio_slew_ctl
*111 mgmt_ena
*112 net1
*113 net10
*114 net11
*115 net12
*116 net13
*117 net14
*118 net15
*119 net16
*120 net17
*121 net18
*122 net19
*123 net2
*124 net20
*125 net21
*126 net22
*127 net23
*128 net24
*129 net25
*130 net26
*131 net27
*132 net28
*133 net29
*134 net3
*135 net30
*136 net31
*137 net32
*138 net33
*139 net34
*140 net35
*141 net36
*142 net37
*143 net38
*144 net39
*145 net4
*146 net40
*147 net41
*148 net42
*149 net43
*150 net45
*151 net46
*152 net47
*153 net48
*154 net49
*155 net5
*156 net50
*157 net51
*158 net52
*159 net53
*160 net54
*161 net55
*162 net56
*163 net57
*164 net58
*165 net59
*166 net6
*167 net60
*168 net61
*169 net62
*170 net63
*171 net64
*172 net65
*173 net66
*174 net67
*175 net68
*176 net69
*177 net7
*178 net70
*179 net71
*180 net72
*181 net8
*182 net9
*183 shift_register\[0\]
*184 shift_register\[10\]
*185 shift_register\[11\]
*186 shift_register\[12\]
*187 shift_register\[13\]
*188 shift_register\[14\]
*189 shift_register\[15\]
*190 shift_register\[1\]
*191 shift_register\[2\]
*192 shift_register\[3\]
*193 shift_register\[4\]
*194 shift_register\[5\]
*195 shift_register\[6\]
*196 shift_register\[7\]
*197 shift_register\[8\]
*198 shift_register\[9\]
*199 BUF\[0\]
*200 BUF\[1\]
*201 BUF\[2\]
*202 FILLER_0_23
*203 FILLER_0_26
*204 FILLER_0_29
*205 FILLER_0_32
*206 FILLER_0_35
*207 FILLER_0_38
*208 FILLER_0_41
*209 FILLER_0_44
*210 FILLER_0_47
*211 FILLER_0_49
*212 FILLER_0_52
*213 FILLER_0_55
*214 FILLER_0_58
*215 FILLER_0_77
*216 FILLER_0_80
*217 FILLER_0_83
*218 FILLER_0_86
*219 FILLER_10_12
*220 FILLER_10_15
*221 FILLER_10_18
*222 FILLER_10_21
*223 FILLER_10_24
*224 FILLER_10_27
*225 FILLER_10_29
*226 FILLER_10_3
*227 FILLER_10_32
*228 FILLER_10_35
*229 FILLER_10_38
*230 FILLER_10_6
*231 FILLER_10_70
*232 FILLER_10_80
*233 FILLER_10_83
*234 FILLER_10_9
*235 FILLER_10_90
*236 FILLER_11_12
*237 FILLER_11_15
*238 FILLER_11_25
*239 FILLER_11_48
*240 FILLER_11_9
*241 FILLER_11_91
*242 FILLER_12_22
*243 FILLER_12_25
*244 FILLER_12_29
*245 FILLER_12_3
*246 FILLER_12_32
*247 FILLER_12_35
*248 FILLER_12_45
*249 FILLER_12_48
*250 FILLER_12_51
*251 FILLER_12_67
*252 FILLER_12_90
*253 FILLER_13_3
*254 FILLER_13_40
*255 FILLER_13_43
*256 FILLER_13_46
*257 FILLER_13_49
*258 FILLER_13_52
*259 FILLER_13_55
*260 FILLER_13_57
*261 FILLER_13_74
*262 FILLER_14_19
*263 FILLER_14_32
*264 FILLER_14_43
*265 FILLER_14_46
*266 FILLER_14_72
*267 FILLER_14_90
*268 FILLER_15_23
*269 FILLER_15_57
*270 FILLER_15_90
*271 FILLER_16_18
*272 FILLER_16_49
*273 FILLER_16_90
*274 FILLER_17_55
*275 FILLER_17_57
*276 FILLER_18_14
*277 FILLER_18_29
*278 FILLER_18_58
*279 FILLER_18_90
*280 FILLER_19_43
*281 FILLER_19_90
*282 FILLER_1_23
*283 FILLER_1_26
*284 FILLER_1_29
*285 FILLER_1_66
*286 FILLER_1_75
*287 FILLER_1_77
*288 FILLER_1_80
*289 FILLER_1_83
*290 FILLER_1_86
*291 FILLER_20_29
*292 FILLER_20_3
*293 FILLER_20_83
*294 FILLER_20_90
*295 FILLER_21_19
*296 FILLER_21_62
*297 FILLER_22_29
*298 FILLER_22_3
*299 FILLER_22_90
*300 FILLER_23_3
*301 FILLER_23_90
*302 FILLER_2_28
*303 FILLER_2_31
*304 FILLER_2_34
*305 FILLER_2_37
*306 FILLER_2_40
*307 FILLER_2_43
*308 FILLER_2_57
*309 FILLER_2_91
*310 FILLER_3_23
*311 FILLER_3_26
*312 FILLER_3_29
*313 FILLER_3_90
*314 FILLER_4_12
*315 FILLER_4_15
*316 FILLER_4_18
*317 FILLER_4_21
*318 FILLER_4_24
*319 FILLER_4_27
*320 FILLER_4_29
*321 FILLER_4_3
*322 FILLER_4_32
*323 FILLER_4_35
*324 FILLER_4_6
*325 FILLER_4_80
*326 FILLER_4_83
*327 FILLER_4_9
*328 FILLER_4_90
*329 FILLER_5_12
*330 FILLER_5_15
*331 FILLER_5_18
*332 FILLER_5_21
*333 FILLER_5_24
*334 FILLER_5_27
*335 FILLER_5_30
*336 FILLER_5_33
*337 FILLER_5_54
*338 FILLER_5_57
*339 FILLER_5_6
*340 FILLER_5_63
*341 FILLER_5_9
*342 FILLER_6_10
*343 FILLER_6_17
*344 FILLER_6_20
*345 FILLER_6_23
*346 FILLER_6_26
*347 FILLER_6_29
*348 FILLER_6_3
*349 FILLER_6_32
*350 FILLER_6_35
*351 FILLER_6_66
*352 FILLER_6_90
*353 FILLER_7_23
*354 FILLER_7_26
*355 FILLER_7_29
*356 FILLER_7_32
*357 FILLER_7_35
*358 FILLER_7_38
*359 FILLER_7_41
*360 FILLER_7_44
*361 FILLER_7_47
*362 FILLER_7_57
*363 FILLER_8_19
*364 FILLER_8_22
*365 FILLER_8_25
*366 FILLER_8_29
*367 FILLER_8_32
*368 FILLER_8_35
*369 FILLER_8_38
*370 FILLER_8_41
*371 FILLER_8_44
*372 FILLER_8_90
*373 FILLER_9_12
*374 FILLER_9_15
*375 FILLER_9_18
*376 FILLER_9_21
*377 FILLER_9_24
*378 FILLER_9_27
*379 FILLER_9_30
*380 FILLER_9_33
*381 FILLER_9_55
*382 FILLER_9_57
*383 FILLER_9_6
*384 FILLER_9_9
*385 PHY_EDGE_ROW_0_2_Left_3
*386 PHY_EDGE_ROW_0_2_Right_27
*387 PHY_EDGE_ROW_10_Left_34
*388 PHY_EDGE_ROW_10_Right_13
*389 PHY_EDGE_ROW_11_Left_35
*390 PHY_EDGE_ROW_11_Right_14
*391 PHY_EDGE_ROW_12_Left_36
*392 PHY_EDGE_ROW_12_Right_15
*393 PHY_EDGE_ROW_13_Left_37
*394 PHY_EDGE_ROW_13_Right_16
*395 PHY_EDGE_ROW_14_Left_38
*396 PHY_EDGE_ROW_14_Right_17
*397 PHY_EDGE_ROW_15_Left_39
*398 PHY_EDGE_ROW_15_Right_18
*399 PHY_EDGE_ROW_16_Left_40
*400 PHY_EDGE_ROW_16_Right_19
*401 PHY_EDGE_ROW_17_Left_41
*402 PHY_EDGE_ROW_17_Right_20
*403 PHY_EDGE_ROW_18_Left_42
*404 PHY_EDGE_ROW_18_Right_21
*405 PHY_EDGE_ROW_19_Left_43
*406 PHY_EDGE_ROW_19_Right_22
*407 PHY_EDGE_ROW_1_2_Left_0
*408 PHY_EDGE_ROW_1_2_Right_4
*409 PHY_EDGE_ROW_20_Left_44
*410 PHY_EDGE_ROW_20_Right_23
*411 PHY_EDGE_ROW_21_Left_45
*412 PHY_EDGE_ROW_21_Right_24
*413 PHY_EDGE_ROW_22_Left_46
*414 PHY_EDGE_ROW_22_Right_25
*415 PHY_EDGE_ROW_23_Left_47
*416 PHY_EDGE_ROW_23_Right_26
*417 PHY_EDGE_ROW_2_2_Left_1
*418 PHY_EDGE_ROW_2_2_Right_5
*419 PHY_EDGE_ROW_3_2_Left_2
*420 PHY_EDGE_ROW_3_2_Right_6
*421 PHY_EDGE_ROW_4_Left_28
*422 PHY_EDGE_ROW_4_Right_7
*423 PHY_EDGE_ROW_5_Left_29
*424 PHY_EDGE_ROW_5_Right_8
*425 PHY_EDGE_ROW_6_Left_30
*426 PHY_EDGE_ROW_6_Right_9
*427 PHY_EDGE_ROW_7_Left_31
*428 PHY_EDGE_ROW_7_Right_10
*429 PHY_EDGE_ROW_8_Left_32
*430 PHY_EDGE_ROW_8_Right_11
*431 PHY_EDGE_ROW_9_Left_33
*432 PHY_EDGE_ROW_9_Right_12
*433 TAP_TAPCELL_ROW_0_2_84
*434 TAP_TAPCELL_ROW_0_2_85
*435 TAP_TAPCELL_ROW_10_61
*436 TAP_TAPCELL_ROW_10_62
*437 TAP_TAPCELL_ROW_11_63
*438 TAP_TAPCELL_ROW_12_64
*439 TAP_TAPCELL_ROW_12_65
*440 TAP_TAPCELL_ROW_13_66
*441 TAP_TAPCELL_ROW_14_67
*442 TAP_TAPCELL_ROW_14_68
*443 TAP_TAPCELL_ROW_15_69
*444 TAP_TAPCELL_ROW_16_70
*445 TAP_TAPCELL_ROW_16_71
*446 TAP_TAPCELL_ROW_17_72
*447 TAP_TAPCELL_ROW_18_73
*448 TAP_TAPCELL_ROW_18_74
*449 TAP_TAPCELL_ROW_19_75
*450 TAP_TAPCELL_ROW_1_2_48
*451 TAP_TAPCELL_ROW_20_76
*452 TAP_TAPCELL_ROW_20_77
*453 TAP_TAPCELL_ROW_21_78
*454 TAP_TAPCELL_ROW_22_79
*455 TAP_TAPCELL_ROW_22_80
*456 TAP_TAPCELL_ROW_23_81
*457 TAP_TAPCELL_ROW_23_82
*458 TAP_TAPCELL_ROW_23_83
*459 TAP_TAPCELL_ROW_2_2_49
*460 TAP_TAPCELL_ROW_3_2_50
*461 TAP_TAPCELL_ROW_4_51
*462 TAP_TAPCELL_ROW_4_52
*463 TAP_TAPCELL_ROW_4_53
*464 TAP_TAPCELL_ROW_5_54
*465 TAP_TAPCELL_ROW_6_55
*466 TAP_TAPCELL_ROW_6_56
*467 TAP_TAPCELL_ROW_7_57
*468 TAP_TAPCELL_ROW_8_58
*469 TAP_TAPCELL_ROW_8_59
*470 TAP_TAPCELL_ROW_9_60
*471 _057_
*472 _058_
*473 _059_
*474 _060_
*475 _061_
*476 _062_
*477 _063_
*478 _064_
*479 _065_
*480 _066_
*481 _067_
*482 _068_
*483 _069_
*484 _070_
*485 _071_
*486 _072_
*487 _073_
*488 _074_
*489 _075_
*490 _076_
*491 _077_
*492 _078_
*493 _079_
*494 _080_
*495 _081_
*496 _082_
*497 _083_
*498 _084_
*499 _085_
*500 _086_
*501 _087_
*502 _088_
*503 _089_
*504 _090_
*505 _091_
*506 _092_
*507 _093_
*508 _094_
*509 _095_
*510 _096_
*511 _097_
*512 _098_
*513 _099_
*514 _100_
*515 _101_
*516 _102_
*517 _103_
*518 _104_
*519 _105_
*520 _106_
*521 _107_
*522 _108_
*523 _109_
*524 _110_
*525 _111_
*526 _112_
*527 _113_
*528 _114_
*529 _115_
*530 _116_
*531 _117_
*532 _118_
*533 _119_
*534 _120_
*535 _121_
*536 _122_
*537 _123_
*538 _124_
*539 _125_
*540 _126_
*541 _127_
*542 _128_
*543 _129_
*544 _130_
*545 _131_
*546 _132_
*547 _133_
*548 _134_
*549 _136_
*550 fanout39
*551 fanout40
*552 fanout41
*553 fanout42
*554 fanout43
*555 gpio_control_block_44
*556 gpio_logic_high
*557 hold1
*558 hold10
*559 hold11
*560 hold12
*561 hold13
*562 hold14
*563 hold15
*564 hold16
*565 hold17
*566 hold18
*567 hold19
*568 hold2
*569 hold20
*570 hold21
*571 hold22
*572 hold23
*573 hold24
*574 hold25
*575 hold26
*576 hold27
*577 hold28
*578 hold3
*579 hold4
*580 hold5
*581 hold6
*582 hold7
*583 hold8
*584 hold9
*585 input1
*586 input10
*587 input11
*588 input12
*589 input13
*590 input14
*591 input15
*592 input16
*593 input17
*594 input18
*595 input19
*596 input2
*597 input20
*598 input3
*599 input4
*600 input5
*601 input6
*602 input7
*603 input8
*604 input9
*605 output21
*606 output22
*607 output23
*608 output24
*609 output25
*610 output26
*611 output27
*612 output28
*613 output29
*614 output30
*615 output31
*616 output32
*617 output33
*618 output34
*619 output35
*620 output36
*621 output37
*622 output38

*PORTS
gpio_defaults[0] I
gpio_defaults[10] I
gpio_defaults[11] I
gpio_defaults[12] I
gpio_defaults[13] I
gpio_defaults[14] I
gpio_defaults[15] I
gpio_defaults[1] I
gpio_defaults[2] I
gpio_defaults[3] I
gpio_defaults[4] I
gpio_defaults[5] I
gpio_defaults[6] I
gpio_defaults[7] I
gpio_defaults[8] I
gpio_defaults[9] I
mgmt_gpio_in O
mgmt_gpio_oeb I
mgmt_gpio_out I
pad_gpio_ana_en O
pad_gpio_ana_pol O
pad_gpio_ana_sel O
pad_gpio_dm[0] O
pad_gpio_dm[1] O
pad_gpio_dm[2] O
pad_gpio_holdover O
pad_gpio_hys_trim O
pad_gpio_ib_mode_sel O
pad_gpio_in I
pad_gpio_inenb O
pad_gpio_out O
pad_gpio_outenb O
pad_gpio_slew_ctl[0] O
pad_gpio_slew_ctl[1] O
pad_gpio_slow_sel O
pad_gpio_vtrip_sel O
resetn I
resetn_out O
serial_clock I
serial_clock_out O
serial_data_in I
serial_data_out O
serial_load I
serial_load_out O
user_gpio_in O
user_gpio_oeb I
user_gpio_out I

*D_NET *1 0.00459749
*CONN
*P gpio_defaults[0] I
*I *580:A I *D sky130_fd_sc_hd__dlygate4sd3_1
*CAP
1 gpio_defaults[0] 0.00156482
2 *580:A 0.00156482
3 *580:A *558:A 0.000266861
4 *580:A *559:A 4.78056e-05
5 *580:A *568:A 0
6 *580:A *14:29 1.02937e-05
7 *580:A *154:16 0.00114289
*RES
1 gpio_defaults[0] *580:A 34.4786 
*END

*D_NET *2 0.00408693
*CONN
*P gpio_defaults[10] I
*I *558:A I *D sky130_fd_sc_hd__dlygate4sd3_1
*CAP
1 gpio_defaults[10] 0.00126409
2 *558:A 0.00126409
3 *558:A pad_gpio_outenb 0.000970878
4 *558:A *560:A 0
5 *558:A *579:A 2.10446e-05
6 *558:A *617:A 9.55638e-05
7 *558:A *14:29 0.000204399
8 *580:A *558:A 0.000266861
*RES
1 gpio_defaults[10] *558:A 33.0857 
*END

*D_NET *3 0.00185741
*CONN
*P gpio_defaults[11] I
*I *560:A I *D sky130_fd_sc_hd__dlygate4sd3_1
*CAP
1 gpio_defaults[11] 0.000720238
2 *560:A 0.000720238
3 *560:A pad_gpio_outenb 5.78793e-05
4 *560:A pad_gpio_vtrip_sel 9.41642e-05
5 *560:A *602:A 0.000186922
6 *560:A *4:19 2.46649e-05
7 *560:A *5:25 0
8 *560:A *177:10 5.33005e-05
9 *558:A *560:A 0
*RES
1 gpio_defaults[11] *560:A 24.7107 
*END

*D_NET *4 0.00539479
*CONN
*P gpio_defaults[12] I
*I *581:A I *D sky130_fd_sc_hd__dlygate4sd3_1
*CAP
1 gpio_defaults[12] 0.0011847
2 *581:A 0
3 *4:19 0.0011847
4 *4:19 *557:A 0.00101323
5 *4:19 *559:A 0.00117478
6 *4:19 *5:25 0
7 *4:19 *12:17 0.000357401
8 *4:19 *14:29 0.000304182
9 *4:19 *154:16 0.000151116
10 *560:A *4:19 2.46649e-05
*RES
1 gpio_defaults[12] *4:19 42.8214 
2 *4:19 *581:A 9.3 
*END

*D_NET *5 0.00928438
*CONN
*P gpio_defaults[13] I
*I *600:A I *D sky130_fd_sc_hd__clkbuf_1
*CAP
1 gpio_defaults[13] 0.00215691
2 *600:A 0.000396643
3 *5:25 0.00255356
4 *600:A *472:A 0.000348213
5 *600:A *544:CLK 4.08637e-05
6 *600:A *545:CLK 0.000199646
7 *600:A *39:118 3.06466e-05
8 *600:A *39:138 0.000152633
9 *600:A *114:14 6.05161e-06
10 *600:A *116:14 0.000495489
11 *600:A *155:10 0.000160296
12 *5:25 pad_gpio_out 0.000539961
13 *5:25 *485:B 2.13481e-06
14 *5:25 *496:A 1.48303e-05
15 *5:25 *496:B 0.000418721
16 *5:25 *526:D 0.000279352
17 *5:25 *526:RESET_B 3.18676e-05
18 *5:25 *526:SET_B 1.98236e-05
19 *5:25 *611:A 0.000265467
20 *5:25 *613:A 0.000749889
21 *5:25 *7:23 0.000279457
22 *5:25 *147:29 4.27566e-05
23 *5:25 *147:48 5.74499e-06
24 *5:25 *148:104 9.3424e-05
25 *560:A *5:25 0
26 *4:19 *5:25 0
*RES
1 gpio_defaults[13] *5:25 47.0179 
2 *5:25 *600:A 24.425 
*END

*D_NET *7 0.00590144
*CONN
*P gpio_defaults[15] I
*I *601:A I *D sky130_fd_sc_hd__clkbuf_1
*CAP
1 gpio_defaults[15] 0.00167805
2 *601:A 0
3 *7:23 0.00167805
4 *7:23 pad_gpio_ib_mode_sel 0.000418256
5 *7:23 *496:A 5.64715e-05
6 *7:23 *548:D 1.98839e-05
7 *7:23 *568:A 0.000245319
8 *7:23 *578:A 0.000310612
9 *7:23 *579:A 0.000663997
10 *7:23 *116:14 0.000428502
11 *7:23 *147:82 1.48995e-05
12 *7:23 *149:62 8.86669e-05
13 *7:23 *176:6 1.92789e-05
14 *5:25 *7:23 0.000279457
*RES
1 gpio_defaults[15] *7:23 44.6786 
2 *7:23 *601:A 9.3 
*END

*D_NET *9 0.00413532
*CONN
*P gpio_defaults[2] I
*I *568:A I *D sky130_fd_sc_hd__dlygate4sd3_1
*CAP
1 gpio_defaults[2] 0.00155541
2 *568:A 0.00155541
3 *568:A *523:RESET_B 0.000324174
4 *568:A *557:A 1.0562e-05
5 *568:A *559:A 0
6 *568:A *578:A 0
7 *568:A *583:A 3.42151e-05
8 *568:A *116:14 0
9 *568:A *147:82 0.00041023
10 *568:A *177:10 0
11 *580:A *568:A 0
12 *7:23 *568:A 0.000245319
*RES
1 gpio_defaults[2] *568:A 45.425 
*END

*D_NET *10 0.00324098
*CONN
*P gpio_defaults[3] I
*I *557:A I *D sky130_fd_sc_hd__dlygate4sd3_1
*CAP
1 gpio_defaults[3] 0.000982711
2 *557:A 0.000982711
3 *557:A *495:B 2.59355e-05
4 *557:A *578:A 0.000225828
5 *568:A *557:A 1.0562e-05
6 *4:19 *557:A 0.00101323
*RES
1 gpio_defaults[3] *557:A 40.6929 
*END

*D_NET *11 0.00476423
*CONN
*P gpio_defaults[4] I
*I *578:A I *D sky130_fd_sc_hd__dlygate4sd3_1
*CAP
1 gpio_defaults[4] 0.00170953
2 *578:A 0.00170953
3 *578:A *495:A 0.000149279
4 *578:A *522:RESET_B 9.22103e-06
5 *578:A *583:A 0
6 *578:A *603:A 0.000137983
7 *578:A *12:17 3.06882e-05
8 *578:A *14:29 0
9 *578:A *147:82 0.00035608
10 *578:A *152:14 9.02476e-05
11 *578:A *177:10 3.52194e-05
12 *557:A *578:A 0.000225828
13 *568:A *578:A 0
14 *7:23 *578:A 0.000310612
*RES
1 gpio_defaults[4] *578:A 39.2286 
*END

*D_NET *12 0.0056173
*CONN
*P gpio_defaults[5] I
*I *582:A I *D sky130_fd_sc_hd__dlygate4sd3_1
*CAP
1 gpio_defaults[5] 0.00219657
2 *582:A 0
3 *12:17 0.00219657
4 *12:17 *559:A 0.000789297
5 *12:17 *583:A 3.75146e-05
6 *12:17 *14:29 9.25014e-06
7 *578:A *12:17 3.06882e-05
8 *4:19 *12:17 0.000357401
*RES
1 gpio_defaults[5] *12:17 42.7679 
2 *12:17 *582:A 9.3 
*END

*D_NET *13 0.00375052
*CONN
*P gpio_defaults[6] I
*I *583:A I *D sky130_fd_sc_hd__dlygate4sd3_1
*CAP
1 gpio_defaults[6] 0.00152612
2 *583:A 0.00152612
3 *583:A *481:A_N 0.000150625
4 *583:A *530:SET_B 0.00019435
5 *583:A *534:D 0
6 *583:A *14:29 0.000185624
7 *583:A *177:10 9.59428e-05
8 *568:A *583:A 3.42151e-05
9 *578:A *583:A 0
10 *12:17 *583:A 3.75146e-05
*RES
1 gpio_defaults[6] *583:A 34.175 
*END

*D_NET *14 0.0055039
*CONN
*P gpio_defaults[7] I
*I *584:A I *D sky130_fd_sc_hd__dlygate4sd3_1
*CAP
1 gpio_defaults[7] 0.00121771
2 *584:A 0
3 *14:29 0.00121771
4 *14:29 pad_gpio_outenb 0.000131557
5 *14:29 *559:A 0.000249433
6 *14:29 *589:A 0.000277503
7 *14:29 *617:A 9.55638e-05
8 *14:29 *116:14 0.000767298
9 *14:29 *154:16 0.000168775
10 *14:29 *156:28 0.000177815
11 *14:29 *159:18 5.52302e-05
12 *14:29 *162:18 0.000332506
13 *14:29 *177:10 9.90431e-05
14 *558:A *14:29 0.000204399
15 *578:A *14:29 0
16 *580:A *14:29 1.02937e-05
17 *583:A *14:29 0.000185624
18 *4:19 *14:29 0.000304182
19 *12:17 *14:29 9.25014e-06
*RES
1 gpio_defaults[7] *14:29 41.7857 
2 *14:29 *584:A 9.3 
*END

*D_NET *15 0.00365443
*CONN
*P gpio_defaults[8] I
*I *559:A I *D sky130_fd_sc_hd__dlygate4sd3_1
*CAP
1 gpio_defaults[8] 0.000541501
2 *559:A 0.000541501
3 *559:A *579:A 6.60313e-05
4 *559:A *617:A 0.000183166
5 *559:A *147:82 1.578e-05
6 *559:A *154:16 4.51335e-05
7 *568:A *559:A 0
8 *580:A *559:A 4.78056e-05
9 *4:19 *559:A 0.00117478
10 *12:17 *559:A 0.000789297
11 *14:29 *559:A 0.000249433
*RES
1 gpio_defaults[8] *559:A 40.1571 
*END

*D_NET *16 0.00301424
*CONN
*P gpio_defaults[9] I
*I *579:A I *D sky130_fd_sc_hd__dlygate4sd3_1
*CAP
1 gpio_defaults[9] 0.000772082
2 *579:A 0.000772082
3 *579:A pad_gpio_ib_mode_sel 0.000385165
4 *579:A *616:A 0.000195855
5 *579:A *147:82 0.000137983
6 *558:A *579:A 2.10446e-05
7 *559:A *579:A 6.60313e-05
8 *7:23 *579:A 0.000663997
*RES
1 gpio_defaults[9] *579:A 29.7821 
*END

*D_NET *17 0.000909461
*CONN
*P mgmt_gpio_in O
*I *605:X O *D sky130_fd_sc_hd__buf_12
*CAP
1 mgmt_gpio_in 0.000454731
2 *605:X 0.000454731
3 mgmt_gpio_in *592:A 0
4 mgmt_gpio_in *594:A 0
5 mgmt_gpio_in *605:A 0
*RES
1 *605:X mgmt_gpio_in 24.3862 
*END

*D_NET *18 0.000884465
*CONN
*P mgmt_gpio_oeb I
*I *591:A I *D sky130_fd_sc_hd__clkbuf_1
*CAP
1 mgmt_gpio_oeb 0.000347207
2 *591:A 0.000347207
3 *591:A *200:A 0
4 *591:A *488:A1 0.000190051
5 *591:A *592:A 0
6 *591:A *597:A 0
*RES
1 mgmt_gpio_oeb *591:A 20.392 
*END

*D_NET *19 0.000548447
*CONN
*P mgmt_gpio_out I
*I *592:A I *D sky130_fd_sc_hd__clkbuf_1
*CAP
1 mgmt_gpio_out 0.000274223
2 *592:A 0.000274223
3 mgmt_gpio_in *592:A 0
4 *591:A *592:A 0
*RES
1 mgmt_gpio_out *592:A 20.7797 
*END

*D_NET *20 0.00338678
*CONN
*P pad_gpio_ana_en O
*I *606:X O *D sky130_fd_sc_hd__buf_12
*CAP
1 pad_gpio_ana_en 0.000878862
2 *606:X 0.000878862
3 pad_gpio_ana_en pad_gpio_dm[0] 0
4 pad_gpio_ana_en pad_gpio_dm[1] 0
5 pad_gpio_ana_en *474:B 4.04691e-06
6 pad_gpio_ana_en *498:A 6.87751e-05
7 pad_gpio_ana_en *565:A 0.000396318
8 pad_gpio_ana_en *606:A 0.00038907
9 pad_gpio_ana_en *126:16 0.000100607
10 pad_gpio_ana_en *134:30 0.000516221
11 pad_gpio_ana_en *144:42 3.60103e-05
12 pad_gpio_ana_en *144:44 0.000118011
*RES
1 *606:X pad_gpio_ana_en 31.626 
*END

*D_NET *21 0.00129424
*CONN
*P pad_gpio_ana_pol O
*I *607:X O *D sky130_fd_sc_hd__buf_12
*CAP
1 pad_gpio_ana_pol 0.000507428
2 *607:X 0.000480657
3 *21:15 2.67704e-05
4 pad_gpio_ana_pol pad_gpio_slew_ctl[0] 0
5 pad_gpio_ana_pol *502:B 7.15808e-05
6 pad_gpio_ana_pol *529:RESET_B 2.976e-05
7 pad_gpio_ana_pol *110:14 0.000178043
8 *21:15 pad_gpio_inenb 0
9 *21:15 *33:15 0
*RES
1 *607:X pad_gpio_ana_pol 25.4154 
2 pad_gpio_ana_pol *21:15 0.0595333 
*END

*D_NET *22 0.00161549
*CONN
*P pad_gpio_ana_sel O
*I *608:X O *D sky130_fd_sc_hd__buf_12
*CAP
1 pad_gpio_ana_sel 0.000634563
2 *608:X 0.000634563
3 pad_gpio_ana_sel pad_gpio_inenb 0
4 pad_gpio_ana_sel pad_gpio_slew_ctl[1] 0
5 pad_gpio_ana_sel *501:B 3.34295e-05
6 pad_gpio_ana_sel *528:RESET_B 3.63775e-05
7 pad_gpio_ana_sel *608:A 0.000125724
8 pad_gpio_ana_sel *110:14 3.22881e-05
9 pad_gpio_ana_sel *146:55 4.82805e-05
10 pad_gpio_ana_sel *152:40 7.02611e-05
*RES
1 *608:X pad_gpio_ana_sel 23.1975 
*END

*D_NET *23 0.00170901
*CONN
*P pad_gpio_dm[0] O
*I *609:X O *D sky130_fd_sc_hd__buf_12
*CAP
1 pad_gpio_dm[0] 0.000647405
2 *609:X 0.000647405
3 pad_gpio_dm[0] *497:B 0
4 pad_gpio_dm[0] *524:SET_B 6.2169e-06
5 pad_gpio_dm[0] *609:A 0.000129868
6 pad_gpio_dm[0] *33:15 0
7 pad_gpio_dm[0] *123:22 9.0145e-05
8 pad_gpio_dm[0] *126:16 0.000187966
9 pad_gpio_ana_en pad_gpio_dm[0] 0
*RES
1 *609:X pad_gpio_dm[0] 22.5202 
*END

*D_NET *24 0.00477576
*CONN
*P pad_gpio_dm[1] O
*I *610:X O *D sky130_fd_sc_hd__buf_12
*CAP
1 pad_gpio_dm[1] 0.00225921
2 *610:X 0.00225921
3 pad_gpio_dm[1] *542:RESET_B 0
4 pad_gpio_dm[1] *573:A 0.000162572
5 pad_gpio_dm[1] *610:A 9.47691e-05
6 pad_gpio_dm[1] *35:15 0
7 pad_gpio_dm[1] *116:26 0
8 pad_gpio_ana_en pad_gpio_dm[1] 0
*RES
1 *610:X pad_gpio_dm[1] 27.5202 
*END

*D_NET *25 0.00151389
*CONN
*P pad_gpio_dm[2] O
*I *611:X O *D sky130_fd_sc_hd__buf_12
*CAP
1 pad_gpio_dm[2] 0.000556071
2 *611:X 0.000529301
3 *25:15 2.67704e-05
4 pad_gpio_dm[2] *473:A_N 2.09072e-05
5 pad_gpio_dm[2] *514:A 9.41642e-05
6 pad_gpio_dm[2] *526:SET_B 0.000137832
7 pad_gpio_dm[2] *611:A 5.33005e-05
8 pad_gpio_dm[2] *145:24 9.55461e-05
9 *25:15 pad_gpio_holdover 0
10 *25:15 *27:15 0
*RES
1 *611:X pad_gpio_dm[2] 26.3261 
2 pad_gpio_dm[2] *25:15 0.0595333 
*END

*D_NET *26 0.00140366
*CONN
*P pad_gpio_holdover O
*I *612:X O *D sky130_fd_sc_hd__buf_12
*CAP
1 pad_gpio_holdover 0.000593816
2 *612:X 0.000593816
3 pad_gpio_holdover pad_gpio_out 0
4 pad_gpio_holdover *514:A 0.000137464
5 pad_gpio_holdover *526:SET_B 1.94879e-05
6 pad_gpio_holdover *530:RESET_B 5.90751e-05
7 pad_gpio_holdover *117:18 0
8 *25:15 pad_gpio_holdover 0
*RES
1 *612:X pad_gpio_holdover 20.2172 
*END

*D_NET *27 0.000962913
*CONN
*P pad_gpio_hys_trim O
*I *613:X O *D sky130_fd_sc_hd__buf_12
*CAP
1 pad_gpio_hys_trim 0.000467006
2 *613:X 0.000444755
3 *27:15 2.22503e-05
4 pad_gpio_hys_trim *613:A 0
5 pad_gpio_hys_trim *146:53 2.89016e-05
6 pad_gpio_hys_trim *182:12 0
7 *27:15 pad_gpio_slew_ctl[1] 0
8 *25:15 *27:15 0
*RES
1 *613:X pad_gpio_hys_trim 24.8618 
2 pad_gpio_hys_trim *27:15 0.0595333 
*END

*D_NET *28 0.00290353
*CONN
*P pad_gpio_ib_mode_sel O
*I *614:X O *D sky130_fd_sc_hd__buf_12
*CAP
1 pad_gpio_ib_mode_sel 0.000740008
2 *614:X 0.000722277
3 *28:15 1.77301e-05
4 pad_gpio_ib_mode_sel pad_gpio_out 0.000479652
5 pad_gpio_ib_mode_sel pad_gpio_outenb 0
6 pad_gpio_ib_mode_sel *494:A 1.21258e-05
7 pad_gpio_ib_mode_sel *496:A 0
8 pad_gpio_ib_mode_sel *616:A 0.000128321
9 *28:15 pad_gpio_vtrip_sel 0
10 *28:15 *32:15 0
11 *579:A pad_gpio_ib_mode_sel 0.000385165
12 *7:23 pad_gpio_ib_mode_sel 0.000418256
*RES
1 *614:X pad_gpio_ib_mode_sel 32.8975 
2 pad_gpio_ib_mode_sel *28:15 0.0595333 
*END

*D_NET *29 0.000700596
*CONN
*P pad_gpio_in I
*I *593:A I *D sky130_fd_sc_hd__buf_1
*CAP
1 pad_gpio_in 0.000350298
2 *593:A 0.000350298
3 *593:A *35:15 0
*RES
1 pad_gpio_in *593:A 19.8001 
*END

*D_NET *30 0.00139779
*CONN
*P pad_gpio_inenb O
*I *615:X O *D sky130_fd_sc_hd__buf_12
*CAP
1 pad_gpio_inenb 0.000622611
2 *615:X 0.000622611
3 pad_gpio_inenb *502:A 0.000147307
4 pad_gpio_inenb *502:B 5.25862e-06
5 pad_gpio_ana_sel pad_gpio_inenb 0
6 *21:15 pad_gpio_inenb 0
*RES
1 *615:X pad_gpio_inenb 23.8907 
*END

*D_NET *31 0.00268565
*CONN
*P pad_gpio_out O
*I *616:X O *D sky130_fd_sc_hd__buf_12
*CAP
1 pad_gpio_out 0.000536236
2 *616:X 0.000536236
3 pad_gpio_out pad_gpio_vtrip_sel 0
4 pad_gpio_out *494:A 8.35107e-05
5 pad_gpio_out *494:B 5.52238e-05
6 pad_gpio_out *496:A 4.6922e-05
7 pad_gpio_out *521:RESET_B 7.15808e-05
8 pad_gpio_out *147:164 0.000336329
9 pad_gpio_holdover pad_gpio_out 0
10 pad_gpio_ib_mode_sel pad_gpio_out 0.000479652
11 *5:25 pad_gpio_out 0.000539961
*RES
1 *616:X pad_gpio_out 30.4424 
*END

*D_NET *32 0.00364871
*CONN
*P pad_gpio_outenb O
*I *617:X O *D sky130_fd_sc_hd__buf_12
*CAP
1 pad_gpio_outenb 0.000855436
2 *617:X 0.000837706
3 *32:15 1.77301e-05
4 pad_gpio_outenb pad_gpio_vtrip_sel 0.000106313
5 pad_gpio_outenb *496:A 0.000133148
6 pad_gpio_outenb *602:A 0.00038161
7 pad_gpio_outenb *620:A 0.000140714
8 pad_gpio_outenb *177:10 1.57414e-05
9 pad_gpio_ib_mode_sel pad_gpio_outenb 0
10 *558:A pad_gpio_outenb 0.000970878
11 *560:A pad_gpio_outenb 5.78793e-05
12 *14:29 pad_gpio_outenb 0.000131557
13 *28:15 *32:15 0
*RES
1 *617:X pad_gpio_outenb 35.6832 
2 pad_gpio_outenb *32:15 0.0595333 
*END

*D_NET *33 0.00150076
*CONN
*P pad_gpio_slew_ctl[0] O
*I *618:X O *D sky130_fd_sc_hd__buf_12
*CAP
1 pad_gpio_slew_ctl[0] 0.000717527
2 *618:X 0.000695277
3 *33:15 2.22503e-05
4 pad_gpio_slew_ctl[0] *615:A 6.57032e-05
5 pad_gpio_ana_pol pad_gpio_slew_ctl[0] 0
6 pad_gpio_dm[0] *33:15 0
7 *21:15 *33:15 0
*RES
1 *618:X pad_gpio_slew_ctl[0] 28.0761 
2 pad_gpio_slew_ctl[0] *33:15 0.0595333 
*END

*D_NET *34 0.0024519
*CONN
*P pad_gpio_slew_ctl[1] O
*I *555:LO O *D sky130_fd_sc_hd__conb_1
*CAP
1 pad_gpio_slew_ctl[1] 0.00109714
2 *555:LO 0.00109714
3 pad_gpio_slew_ctl[1] *173:14 0.000257619
4 pad_gpio_ana_sel pad_gpio_slew_ctl[1] 0
5 *27:15 pad_gpio_slew_ctl[1] 0
*RES
1 *555:LO pad_gpio_slew_ctl[1] 22.0093 
*END

*D_NET *35 0.00426009
*CONN
*P pad_gpio_slow_sel O
*I *619:X O *D sky130_fd_sc_hd__buf_12
*CAP
1 pad_gpio_slow_sel 0.00094272
2 *619:X 0.00092499
3 *35:15 1.77301e-05
4 pad_gpio_slow_sel *484:A_N 0.000256761
5 pad_gpio_slow_sel *484:B 2.67132e-05
6 pad_gpio_slow_sel *498:A 7.24732e-05
7 pad_gpio_slow_sel *505:A 0.000261175
8 pad_gpio_slow_sel *542:CLK 5.60962e-05
9 pad_gpio_slow_sel *542:D 2.976e-05
10 pad_gpio_slow_sel *565:A 0.000756581
11 pad_gpio_slow_sel *619:A 0.000348687
12 pad_gpio_slow_sel *134:30 0.000566402
13 pad_gpio_dm[1] *35:15 0
14 *593:A *35:15 0
*RES
1 *619:X pad_gpio_slow_sel 41.6296 
2 pad_gpio_slow_sel *35:15 0.0595333 
*END

*D_NET *36 0.00254901
*CONN
*P pad_gpio_vtrip_sel O
*I *620:X O *D sky130_fd_sc_hd__buf_12
*CAP
1 pad_gpio_vtrip_sel 0.00071721
2 *620:X 0.00071721
3 pad_gpio_vtrip_sel *521:RESET_B 3.23026e-05
4 pad_gpio_vtrip_sel *523:RESET_B 9.92409e-05
5 pad_gpio_vtrip_sel *530:RESET_B 0.000101787
6 pad_gpio_vtrip_sel *620:A 0.000619597
7 pad_gpio_vtrip_sel *117:18 6.11887e-05
8 pad_gpio_out pad_gpio_vtrip_sel 0
9 pad_gpio_outenb pad_gpio_vtrip_sel 0.000106313
10 *560:A pad_gpio_vtrip_sel 9.41642e-05
11 *28:15 pad_gpio_vtrip_sel 0
*RES
1 *620:X pad_gpio_vtrip_sel 28.0897 
*END

*D_NET *37 0.0063994
*CONN
*P resetn I
*I *200:A I *D sky130_fd_sc_hd__clkbuf_8
*I *554:A I *D sky130_fd_sc_hd__clkbuf_2
*CAP
1 resetn 0.00127129
2 *200:A 0.00117543
3 *554:A 2.52056e-05
4 *37:21 0.00247193
5 *200:A *488:A0 0.000100831
6 *200:A *488:A1 0
7 *200:A *531:D 0
8 *200:A *553:A 0.000205767
9 *200:A *563:A 3.26952e-05
10 *200:A *39:171 9.61591e-05
11 *200:A *143:12 0
12 *200:A *152:14 0.000679219
13 *200:A *178:10 8.33655e-05
14 *554:A *489:A 5.52302e-05
15 *37:21 *489:B 0
16 *37:21 *39:9 0.000177184
17 *37:21 *43:5 0
18 *37:21 *134:14 0
19 *37:21 *143:12 2.50938e-05
20 *591:A *200:A 0
*RES
1 resetn *37:21 24.2319 
2 *37:21 *554:A 14.3357 
3 *37:21 *200:A 37.9071 
*END

*D_NET *38 0.000514214
*CONN
*P resetn_out O
*I *200:X O *D sky130_fd_sc_hd__clkbuf_8
*CAP
1 resetn_out 0.000257107
2 *200:X 0.000257107
3 resetn_out serial_clock_out 0
4 resetn_out serial_load_out 0
5 resetn_out user_gpio_in 0
*RES
1 *200:X resetn_out 20.2797 
*END

*D_NET *39 0.0253454
*CONN
*P serial_clock I
*I *531:CLK I *D sky130_fd_sc_hd__dfrtp_1
*I *538:CLK I *D sky130_fd_sc_hd__dfrtp_1
*I *545:CLK I *D sky130_fd_sc_hd__dfrtp_1
*I *546:CLK I *D sky130_fd_sc_hd__dfrtp_1
*I *534:CLK I *D sky130_fd_sc_hd__dfrtp_1
*I *535:CLK I *D sky130_fd_sc_hd__dfrtp_1
*I *201:A I *D sky130_fd_sc_hd__clkbuf_8
*I *533:CLK I *D sky130_fd_sc_hd__dfrtp_1
*I *532:CLK I *D sky130_fd_sc_hd__dfrtp_1
*I *544:CLK I *D sky130_fd_sc_hd__dfrtp_1
*I *472:A I *D sky130_fd_sc_hd__inv_2
*I *536:CLK I *D sky130_fd_sc_hd__dfrtp_1
*I *537:CLK I *D sky130_fd_sc_hd__dfrtp_1
*I *541:CLK I *D sky130_fd_sc_hd__dfrtp_1
*I *543:CLK I *D sky130_fd_sc_hd__dfrtp_1
*I *540:CLK I *D sky130_fd_sc_hd__dfrtp_1
*I *542:CLK I *D sky130_fd_sc_hd__dfrtp_1
*I *539:CLK I *D sky130_fd_sc_hd__dfrtp_1
*CAP
1 serial_clock 0.000480422
2 *531:CLK 0.000180902
3 *538:CLK 0
4 *545:CLK 0.00010908
5 *546:CLK 0
6 *534:CLK 0.000296449
7 *535:CLK 0.000207247
8 *201:A 4.00453e-05
9 *533:CLK 0
10 *532:CLK 0.00045367
11 *544:CLK 0.000350252
12 *472:A 0.000283903
13 *536:CLK 0
14 *537:CLK 8.86442e-05
15 *541:CLK 0.00035305
16 *543:CLK 5.282e-05
17 *540:CLK 0
18 *542:CLK 0.000409053
19 *539:CLK 5.56332e-05
20 *39:193 0.000644479
21 *39:180 0.000268345
22 *39:171 0.000262573
23 *39:158 0.0013024
24 *39:146 0.000895945
25 *39:138 0.000408809
26 *39:120 0.000634155
27 *39:118 0.000354524
28 *39:107 0.000947929
29 *39:86 0.00132315
30 *39:76 0.000815237
31 *39:63 0.000935763
32 *39:45 0.000290252
33 *39:30 0.000913463
34 *39:22 0.000758586
35 *39:13 0.00138135
36 *39:9 0.00182656
37 *472:A *486:B 0.00025977
38 *472:A *491:B 0.00016775
39 *472:A *567:A 2.78512e-05
40 *472:A *587:A 0.000137983
41 *472:A *595:A 8.11174e-05
42 *472:A *94:16 2.1806e-05
43 *472:A *114:14 2.58821e-05
44 *531:CLK *531:D 7.1724e-05
45 *531:CLK *594:A 0
46 *531:CLK *605:A 5.94634e-05
47 *532:CLK *532:D 7.23509e-05
48 *532:CLK *563:A 4.50349e-06
49 *534:CLK *522:CLK_N 0.000229332
50 *534:CLK *534:D 6.57032e-05
51 *534:CLK *603:A 0.000173804
52 *534:CLK *148:27 0.000102327
53 *534:CLK *152:14 0
54 *535:CLK *535:D 1.24368e-05
55 *535:CLK *548:D 0.000175664
56 *535:CLK *94:16 1.00527e-05
57 *537:CLK *537:D 1.85443e-05
58 *541:CLK *541:D 7.77751e-05
59 *541:CLK *561:A 5.52302e-05
60 *541:CLK *123:22 0.000416995
61 *541:CLK *163:18 3.69047e-06
62 *542:CLK *540:RESET_B 0
63 *542:CLK *542:D 0
64 *542:CLK *619:A 2.78576e-05
65 *542:CLK *43:169 0.000415752
66 *544:CLK *544:D 7.3237e-05
67 *544:CLK *567:A 0.000195738
68 *544:CLK *155:10 0.000196323
69 *545:CLK *536:D 2.68493e-05
70 *545:CLK *123:16 3.074e-05
71 *39:9 *489:B 0
72 *39:9 *531:D 3.88799e-05