*SPEF "ieee 1481-1999"
*DESIGN "gpio_control_block_mgmt_monitor"
*DATE "18:42:47 Monday June 16, 2025"
*VENDOR "The OpenROAD Project"
*PROGRAM "OpenROAD"
*VERSION "edf00dff99f6c40d67a30c0e22a8191c5d2ed9d6"
*DESIGN_FLOW "NAME_SCOPE LOCAL" "PIN_CAP NONE"
*DIVIDER /
*DELIMITER :
*BUS_DELIMITER []
*T_UNIT 1 NS
*C_UNIT 1 PF
*R_UNIT 1 OHM
*L_UNIT 1 HENRY

*NAME_MAP
*1 gpio_defaults[0]
*2 gpio_defaults[10]
*3 gpio_defaults[11]
*4 gpio_defaults[12]
*5 gpio_defaults[13]
*6 gpio_defaults[14]
*7 gpio_defaults[15]
*8 gpio_defaults[1]
*9 gpio_defaults[2]
*10 gpio_defaults[3]
*11 gpio_defaults[4]
*12 gpio_defaults[5]
*13 gpio_defaults[6]
*14 gpio_defaults[7]
*15 gpio_defaults[8]
*16 gpio_defaults[9]
*17 mgmt_gpio_in
*18 mgmt_gpio_oeb
*19 mgmt_gpio_out
*20 pad_gpio_ana_en
*21 pad_gpio_ana_pol
*22 pad_gpio_ana_sel
*23 pad_gpio_dm[0]
*24 pad_gpio_dm[1]
*25 pad_gpio_dm[2]
*26 pad_gpio_holdover
*27 pad_gpio_hys_trim
*28 pad_gpio_ib_mode_sel
*29 pad_gpio_in
*30 pad_gpio_inenb
*31 pad_gpio_out
*32 pad_gpio_outenb
*33 pad_gpio_slew_ctl[0]
*34 net44
*35 pad_gpio_slow_sel
*36 pad_gpio_vtrip_sel
*37 resetn
*38 resetn_out
*39 serial_clock
*40 serial_clock_out
*41 serial_data_in
*42 serial_data_out
*43 serial_load
*44 serial_load_out
*45 user_gpio_in
*46 user_gpio_oeb
*47 user_gpio_out
*52 _000_
*53 _001_
*54 _002_
*55 _003_
*56 _004_
*57 _005_
*58 _006_
*59 _007_
*60 _008_
*61 _009_
*62 _010_
*63 _011_
*64 _012_
*65 _013_
*66 _014_
*67 _015_
*68 _016_
*69 _017_
*70 _018_
*71 _019_
*72 _020_
*73 _021_
*74 _022_
*75 _023_
*76 _024_
*77 _025_
*78 _026_
*79 _027_
*80 _028_
*81 _029_
*82 _030_
*83 _031_
*84 _032_
*85 _033_
*86 _034_
*87 _035_
*88 _036_
*89 _037_
*90 _038_
*91 _039_
*92 _040_
*93 _041_
*94 _042_
*95 _043_
*96 _044_
*97 _045_
*98 _046_
*99 _047_
*100 _048_
*101 _049_
*102 _050_
*103 _051_
*104 _052_
*105 _053_
*106 _054_
*107 _055_
*108 _056_
*109 gpio_logic1
*110 gpio_slew_ctl
*111 mgmt_ena
*112 net1
*113 net10
*114 net11
*115 net12
*116 net13
*117 net14
*118 net15
*119 net16
*120 net17
*121 net18
*122 net19
*123 net2
*124 net20
*125 net21
*126 net22
*127 net23
*128 net24
*129 net25
*130 net26
*131 net27
*132 net28
*133 net29
*134 net3
*135 net30
*136 net31
*137 net32
*138 net33
*139 net34
*140 net35
*141 net36
*142 net37
*143 net38
*144 net39
*145 net4
*146 net40
*147 net41
*148 net42
*149 net43
*150 net45
*151 net46
*152 net47
*153 net48
*154 net49
*155 net5
*156 net50
*157 net51
*158 net52
*159 net53
*160 net54
*161 net55
*162 net56
*163 net57
*164 net58
*165 net59
*166 net6
*167 net60
*168 net61
*169 net62
*170 net63
*171 net64
*172 net65
*173 net66
*174 net67
*175 net68
*176 net69
*177 net7
*178 net70
*179 net71
*180 net72
*181 net8
*182 net9
*183 shift_register\[0\]
*184 shift_register\[10\]
*185 shift_register\[11\]
*186 shift_register\[12\]
*187 shift_register\[13\]
*188 shift_register\[14\]
*189 shift_register\[15\]
*190 shift_register\[1\]
*191 shift_register\[2\]
*192 shift_register\[3\]
*193 shift_register\[4\]
*194 shift_register\[5\]
*195 shift_register\[6\]
*196 shift_register\[7\]
*197 shift_register\[8\]
*198 shift_register\[9\]
*199 BUF\[0\]
*200 BUF\[1\]
*201 BUF\[2\]
*202 FILLER_0_23
*203 FILLER_0_26
*204 FILLER_0_29
*205 FILLER_0_32
*206 FILLER_0_35
*207 FILLER_0_38
*208 FILLER_0_41
*209 FILLER_0_44
*210 FILLER_0_47
*211 FILLER_0_49
*212 FILLER_0_52
*213 FILLER_0_55
*214 FILLER_0_58
*215 FILLER_0_77
*216 FILLER_0_80
*217 FILLER_0_83
*218 FILLER_0_86
*219 FILLER_10_12
*220 FILLER_10_15
*221 FILLER_10_18
*222 FILLER_10_21
*223 FILLER_10_24
*224 FILLER_10_27
*225 FILLER_10_29
*226 FILLER_10_3
*227 FILLER_10_32
*228 FILLER_10_35
*229 FILLER_10_38
*230 FILLER_10_6
*231 FILLER_10_70
*232 FILLER_10_80
*233 FILLER_10_9
*234 FILLER_10_90
*235 FILLER_11_12
*236 FILLER_11_15
*237 FILLER_11_25
*238 FILLER_11_47
*239 FILLER_11_57
*240 FILLER_11_9
*241 FILLER_12_22
*242 FILLER_12_25
*243 FILLER_12_29
*244 FILLER_12_3
*245 FILLER_12_32
*246 FILLER_12_35
*247 FILLER_12_45
*248 FILLER_12_48
*249 FILLER_12_51
*250 FILLER_12_67
*251 FILLER_12_90
*252 FILLER_13_3
*253 FILLER_13_40
*254 FILLER_13_43
*255 FILLER_13_46
*256 FILLER_13_49
*257 FILLER_13_52
*258 FILLER_13_55
*259 FILLER_13_57
*260 FILLER_13_74
*261 FILLER_14_19
*262 FILLER_14_35
*263 FILLER_14_38
*264 FILLER_14_41
*265 FILLER_14_44
*266 FILLER_14_83
*267 FILLER_14_90
*268 FILLER_15_24
*269 FILLER_15_3
*270 FILLER_15_34
*271 FILLER_15_61
*272 FILLER_15_90
*273 FILLER_16_18
*274 FILLER_16_90
*275 FILLER_17_55
*276 FILLER_17_57
*277 FILLER_18_14
*278 FILLER_18_29
*279 FILLER_18_59
*280 FILLER_18_90
*281 FILLER_19_43
*282 FILLER_19_90
*283 FILLER_1_23
*284 FILLER_1_26
*285 FILLER_1_29
*286 FILLER_1_66
*287 FILLER_1_72
*288 FILLER_1_75
*289 FILLER_1_77
*290 FILLER_1_80
*291 FILLER_1_83
*292 FILLER_1_86
*293 FILLER_20_29
*294 FILLER_20_3
*295 FILLER_20_83
*296 FILLER_20_90
*297 FILLER_21_19
*298 FILLER_21_62
*299 FILLER_22_29
*300 FILLER_22_90
*301 FILLER_23_3
*302 FILLER_23_90
*303 FILLER_2_28
*304 FILLER_2_31
*305 FILLER_2_34
*306 FILLER_2_37
*307 FILLER_2_40
*308 FILLER_2_43
*309 FILLER_2_57
*310 FILLER_2_91
*311 FILLER_3_23
*312 FILLER_3_26
*313 FILLER_3_29
*314 FILLER_3_90
*315 FILLER_4_12
*316 FILLER_4_15
*317 FILLER_4_18
*318 FILLER_4_21
*319 FILLER_4_24
*320 FILLER_4_27
*321 FILLER_4_29
*322 FILLER_4_3
*323 FILLER_4_32
*324 FILLER_4_35
*325 FILLER_4_6
*326 FILLER_4_80
*327 FILLER_4_83
*328 FILLER_4_9
*329 FILLER_4_90
*330 FILLER_5_12
*331 FILLER_5_15
*332 FILLER_5_18
*333 FILLER_5_21
*334 FILLER_5_24
*335 FILLER_5_27
*336 FILLER_5_3
*337 FILLER_5_30
*338 FILLER_5_57
*339 FILLER_5_6
*340 FILLER_5_63
*341 FILLER_5_9
*342 FILLER_6_12
*343 FILLER_6_17
*344 FILLER_6_20
*345 FILLER_6_23
*346 FILLER_6_26
*347 FILLER_6_29
*348 FILLER_6_32
*349 FILLER_6_35
*350 FILLER_6_66
*351 FILLER_6_9
*352 FILLER_6_90
*353 FILLER_7_23
*354 FILLER_7_26
*355 FILLER_7_29
*356 FILLER_7_32
*357 FILLER_7_35
*358 FILLER_7_38
*359 FILLER_7_41
*360 FILLER_7_44
*361 FILLER_7_47
*362 FILLER_7_57
*363 FILLER_8_19
*364 FILLER_8_22
*365 FILLER_8_25
*366 FILLER_8_29
*367 FILLER_8_32
*368 FILLER_8_35
*369 FILLER_8_38
*370 FILLER_8_41
*371 FILLER_8_44
*372 FILLER_8_90
*373 FILLER_9_12
*374 FILLER_9_15
*375 FILLER_9_18
*376 FILLER_9_21
*377 FILLER_9_24
*378 FILLER_9_27
*379 FILLER_9_30
*380 FILLER_9_33
*381 FILLER_9_55
*382 FILLER_9_57
*383 FILLER_9_6
*384 FILLER_9_9
*385 PHY_EDGE_ROW_0_2_Left_3
*386 PHY_EDGE_ROW_0_2_Right_27
*387 PHY_EDGE_ROW_10_Left_34
*388 PHY_EDGE_ROW_10_Right_13
*389 PHY_EDGE_ROW_11_Left_35
*390 PHY_EDGE_ROW_11_Right_14
*391 PHY_EDGE_ROW_12_Left_36
*392 PHY_EDGE_ROW_12_Right_15
*393 PHY_EDGE_ROW_13_Left_37
*394 PHY_EDGE_ROW_13_Right_16
*395 PHY_EDGE_ROW_14_Left_38
*396 PHY_EDGE_ROW_14_Right_17
*397 PHY_EDGE_ROW_15_Left_39
*398 PHY_EDGE_ROW_15_Right_18
*399 PHY_EDGE_ROW_16_Left_40
*400 PHY_EDGE_ROW_16_Right_19
*401 PHY_EDGE_ROW_17_Left_41
*402 PHY_EDGE_ROW_17_Right_20
*403 PHY_EDGE_ROW_18_Left_42
*404 PHY_EDGE_ROW_18_Right_21
*405 PHY_EDGE_ROW_19_Left_43
*406 PHY_EDGE_ROW_19_Right_22
*407 PHY_EDGE_ROW_1_2_Left_0
*408 PHY_EDGE_ROW_1_2_Right_4
*409 PHY_EDGE_ROW_20_Left_44
*410 PHY_EDGE_ROW_20_Right_23
*411 PHY_EDGE_ROW_21_Left_45
*412 PHY_EDGE_ROW_21_Right_24
*413 PHY_EDGE_ROW_22_Left_46
*414 PHY_EDGE_ROW_22_Right_25
*415 PHY_EDGE_ROW_23_Left_47
*416 PHY_EDGE_ROW_23_Right_26
*417 PHY_EDGE_ROW_2_2_Left_1
*418 PHY_EDGE_ROW_2_2_Right_5
*419 PHY_EDGE_ROW_3_2_Left_2
*420 PHY_EDGE_ROW_3_2_Right_6
*421 PHY_EDGE_ROW_4_Left_28
*422 PHY_EDGE_ROW_4_Right_7
*423 PHY_EDGE_ROW_5_Left_29
*424 PHY_EDGE_ROW_5_Right_8
*425 PHY_EDGE_ROW_6_Left_30
*426 PHY_EDGE_ROW_6_Right_9
*427 PHY_EDGE_ROW_7_Left_31
*428 PHY_EDGE_ROW_7_Right_10
*429 PHY_EDGE_ROW_8_Left_32
*430 PHY_EDGE_ROW_8_Right_11
*431 PHY_EDGE_ROW_9_Left_33
*432 PHY_EDGE_ROW_9_Right_12
*433 TAP_TAPCELL_ROW_0_2_84
*434 TAP_TAPCELL_ROW_0_2_85
*435 TAP_TAPCELL_ROW_10_61
*436 TAP_TAPCELL_ROW_10_62
*437 TAP_TAPCELL_ROW_11_63
*438 TAP_TAPCELL_ROW_12_64
*439 TAP_TAPCELL_ROW_12_65
*440 TAP_TAPCELL_ROW_13_66
*441 TAP_TAPCELL_ROW_14_67
*442 TAP_TAPCELL_ROW_14_68
*443 TAP_TAPCELL_ROW_15_69
*444 TAP_TAPCELL_ROW_16_70
*445 TAP_TAPCELL_ROW_16_71
*446 TAP_TAPCELL_ROW_17_72
*447 TAP_TAPCELL_ROW_18_73
*448 TAP_TAPCELL_ROW_18_74
*449 TAP_TAPCELL_ROW_19_75
*450 TAP_TAPCELL_ROW_1_2_48
*451 TAP_TAPCELL_ROW_20_76
*452 TAP_TAPCELL_ROW_20_77
*453 TAP_TAPCELL_ROW_21_78
*454 TAP_TAPCELL_ROW_22_79
*455 TAP_TAPCELL_ROW_22_80
*456 TAP_TAPCELL_ROW_23_81
*457 TAP_TAPCELL_ROW_23_82
*458 TAP_TAPCELL_ROW_23_83
*459 TAP_TAPCELL_ROW_2_2_49
*460 TAP_TAPCELL_ROW_3_2_50
*461 TAP_TAPCELL_ROW_4_51
*462 TAP_TAPCELL_ROW_4_52
*463 TAP_TAPCELL_ROW_4_53
*464 TAP_TAPCELL_ROW_5_54
*465 TAP_TAPCELL_ROW_6_55
*466 TAP_TAPCELL_ROW_6_56
*467 TAP_TAPCELL_ROW_7_57
*468 TAP_TAPCELL_ROW_8_58
*469 TAP_TAPCELL_ROW_8_59
*470 TAP_TAPCELL_ROW_9_60
*471 _057_
*472 _058_
*473 _059_
*474 _060_
*475 _061_
*476 _062_
*477 _063_
*478 _064_
*479 _065_
*480 _066_
*481 _067_
*482 _068_
*483 _069_
*484 _070_
*485 _071_
*486 _072_
*487 _073_
*488 _074_
*489 _075_
*490 _076_
*491 _077_
*492 _078_
*493 _079_
*494 _080_
*495 _081_
*496 _082_
*497 _083_
*498 _084_
*499 _085_
*500 _086_
*501 _087_
*502 _088_
*503 _089_
*504 _090_
*505 _091_
*506 _092_
*507 _093_
*508 _094_
*509 _095_
*510 _096_
*511 _097_
*512 _098_
*513 _099_
*514 _100_
*515 _101_
*516 _102_
*517 _103_
*518 _104_
*519 _105_
*520 _106_
*521 _107_
*522 _108_
*523 _109_
*524 _110_
*525 _111_
*526 _112_
*527 _113_
*528 _114_
*529 _115_
*530 _116_
*531 _117_
*532 _118_
*533 _119_
*534 _120_
*535 _121_
*536 _122_
*537 _123_
*538 _124_
*539 _125_
*540 _126_
*541 _127_
*542 _128_
*543 _129_
*544 _130_
*545 _131_
*546 _132_
*547 _133_
*548 _135_
*549 _136_
*550 fanout39
*551 fanout40
*552 fanout41
*553 fanout42
*554 fanout43
*555 gpio_control_block_mgmt_monitor_44
*556 gpio_logic_high
*557 hold1
*558 hold10
*559 hold11
*560 hold12
*561 hold13
*562 hold14
*563 hold15
*564 hold16
*565 hold17
*566 hold18
*567 hold19
*568 hold2
*569 hold20
*570 hold21
*571 hold22
*572 hold23
*573 hold24
*574 hold25
*575 hold26
*576 hold27
*577 hold28
*578 hold3
*579 hold4
*580 hold5
*581 hold6
*582 hold7
*583 hold8
*584 hold9
*585 input1
*586 input10
*587 input11
*588 input12
*589 input13
*590 input14
*591 input15
*592 input16
*593 input17
*594 input18
*595 input19
*596 input2
*597 input20
*598 input3
*599 input4
*600 input5
*601 input6
*602 input7
*603 input8
*604 input9
*605 output21
*606 output22
*607 output23
*608 output24
*609 output25
*610 output26
*611 output27
*612 output28
*613 output29
*614 output30
*615 output31
*616 output32
*617 output33
*618 output34
*619 output35
*620 output36
*621 output37
*622 output38

*PORTS
gpio_defaults[0] I
gpio_defaults[10] I
gpio_defaults[11] I
gpio_defaults[12] I
gpio_defaults[13] I
gpio_defaults[14] I
gpio_defaults[15] I
gpio_defaults[1] I
gpio_defaults[2] I
gpio_defaults[3] I
gpio_defaults[4] I
gpio_defaults[5] I
gpio_defaults[6] I
gpio_defaults[7] I
gpio_defaults[8] I
gpio_defaults[9] I
mgmt_gpio_in O
mgmt_gpio_oeb I
mgmt_gpio_out I
pad_gpio_ana_en O
pad_gpio_ana_pol O
pad_gpio_ana_sel O
pad_gpio_dm[0] O
pad_gpio_dm[1] O
pad_gpio_dm[2] O
pad_gpio_holdover O
pad_gpio_hys_trim O
pad_gpio_ib_mode_sel O
pad_gpio_in I
pad_gpio_inenb O
pad_gpio_out O
pad_gpio_outenb O
pad_gpio_slew_ctl[0] O
pad_gpio_slew_ctl[1] O
pad_gpio_slow_sel O
pad_gpio_vtrip_sel O
resetn I
resetn_out O
serial_clock I
serial_clock_out O
serial_data_in I
serial_data_out O
serial_load I
serial_load_out O
user_gpio_in O
user_gpio_oeb I
user_gpio_out I

*D_NET *1 0.00351062
*CONN
*P gpio_defaults[0] I
*I *580:A I *D sky130_fd_sc_hd__dlygate4sd3_1
*CAP
1 gpio_defaults[0] 0.000617251
2 *580:A 0.000617251
3 *580:A *559:A 0
4 *580:A *568:A 0
5 *580:A *583:A 0.000140921
6 *580:A *584:A 0.00151039
7 *580:A *587:A 0.000136432
8 *580:A *3:19 0.000302778
9 *580:A *114:12 3.40043e-05
10 *580:A *159:20 9.27866e-05
11 *580:A *162:20 5.88084e-05
*RES
1 gpio_defaults[0] *580:A 32.0143 
*END

*D_NET *2 0.00405258
*CONN
*P gpio_defaults[10] I
*I *558:A I *D sky130_fd_sc_hd__dlygate4sd3_1
*CAP
1 gpio_defaults[10] 0.00107435
2 *558:A 0.00107435
3 *558:A pad_gpio_ib_mode_sel 0.000593779
4 *558:A *521:RESET_B 0.000227532
5 *558:A *579:A 2.95781e-05
6 *558:A *589:A 5.71472e-05
7 *558:A *616:A 1.9964e-05
8 *558:A *3:19 0
9 *558:A *62:24 0.000674854
10 *558:A *153:18 0.000301024
*RES
1 gpio_defaults[10] *558:A 35.3714 
*END

*D_NET *3 0.00552021
*CONN
*P gpio_defaults[11] I
*I *560:A I *D sky130_fd_sc_hd__dlygate4sd3_1
*CAP
1 gpio_defaults[11] 0.00216317
2 *560:A 0
3 *3:19 0.00216317
4 *3:19 *559:A 0.000826205
5 *3:19 *4:19 3.70341e-05
6 *3:19 *162:20 2.78576e-05
7 *558:A *3:19 0
8 *580:A *3:19 0.000302778
*RES
1 gpio_defaults[11] *3:19 41.2857 
2 *3:19 *560:A 9.3 
*END

*D_NET *4 0.00648324
*CONN
*P gpio_defaults[12] I
*I *581:A I *D sky130_fd_sc_hd__dlygate4sd3_1
*CAP
1 gpio_defaults[12] 0.00254252
2 *581:A 0
3 *4:19 0.00254252
4 *4:19 pad_gpio_vtrip_sel 0.000122289
5 *4:19 *481:B 4.70388e-05
6 *4:19 *494:A 0.00072178
7 *4:19 *495:B 1.08413e-05
8 *4:19 *520:RESET_B 7.14469e-05
9 *4:19 *521:CLK_N 7.43578e-06
10 *4:19 *521:D 5.38242e-05
11 *4:19 *529:CLK_N 4.00679e-05
12 *4:19 *529:D 4.00679e-05
13 *4:19 *589:A 5.33005e-05
14 *4:19 *620:A 0.000113843
15 *4:19 *5:21 0
16 *4:19 *147:117 5.33005e-05
17 *4:19 *153:18 2.59355e-05
18 *3:19 *4:19 3.70341e-05
*RES
1 gpio_defaults[12] *4:19 45.8214 
2 *4:19 *581:A 9.3 
*END

*D_NET *5 0.00958681
*CONN
*P gpio_defaults[13] I
*I *600:A I *D sky130_fd_sc_hd__clkbuf_1
*CAP
1 gpio_defaults[13] 0.00199586
2 *600:A 0.000441002
3 *5:21 0.00243686
4 *600:A *518:SET_B 4.18796e-05
5 *600:A *535:D 2.72464e-05
6 *600:A *543:RESET_B 0
7 *600:A *544:CLK 0.000338497
8 *600:A *39:97 3.06466e-05
9 *600:A *39:105 0.000431864
10 *600:A *39:190 4.08637e-05
11 *600:A *114:12 0.000366312
12 *600:A *134:14 0.000642093
13 *600:A *162:20 8.11273e-05
14 *5:21 pad_gpio_out 0.000349834
15 *5:21 *473:B 0.000245086
16 *5:21 *483:B 0.0002052
17 *5:21 *491:A 1.58163e-05
18 *5:21 *493:B 0.000146592
19 *5:21 *495:B 0.000417444
20 *5:21 *518:RESET_B 3.5479e-06
21 *5:21 *525:CLK_N 0.000105297
22 *5:21 *525:D 0.000278558
23 *5:21 *525:RESET_B 3.18676e-05
24 *5:21 *525:SET_B 3.14178e-05
25 *5:21 *529:RESET_B 6.05308e-05
26 *5:21 *570:A 2.78576e-05
27 *5:21 *601:A 0.00010995
28 *5:21 *611:A 0.000181591
29 *5:21 *613:A 0.000121978
30 *5:21 *62:24 7.5779e-05
31 *5:21 *149:60 2.59996e-05
32 *5:21 *182:30 0.000278212
33 *4:19 *5:21 0
*RES
1 gpio_defaults[13] *5:21 45.125 
2 *5:21 *600:A 26.8893 
*END

*D_NET *7 0.00561095
*CONN
*P gpio_defaults[15] I
*I *601:A I *D sky130_fd_sc_hd__clkbuf_1
*CAP
1 gpio_defaults[15] 0.00200421
2 *601:A 0.00200421
3 *601:A pad_gpio_ib_mode_sel 0
4 *601:A *476:A_N 1.98839e-05
5 *601:A *483:B 4.58324e-05
6 *601:A *493:B 7.34705e-05
7 *601:A *520:SET_B 7.23398e-05
8 *601:A *529:SET_B 4.17375e-05
9 *601:A *613:A 0.00038852
10 *601:A *620:A 1.17927e-05
11 *601:A *62:24 3.52194e-05
12 *601:A *147:84 0.000249844
13 *601:A *147:101 0.000351286
14 *601:A *166:8 0.000136951
15 *601:A *180:37 6.57032e-05
16 *5:21 *601:A 0.00010995
*RES
1 gpio_defaults[15] *601:A 44.7821 
*END

*D_NET *9 0.00413736
*CONN
*P gpio_defaults[2] I
*I *568:A I *D sky130_fd_sc_hd__dlygate4sd3_1
*CAP
1 gpio_defaults[2] 0.00147342
2 *568:A 0.00147342
3 *568:A *520:CLK_N 0.000295619
4 *568:A *521:RESET_B 0
5 *568:A *522:D 0
6 *568:A *557:A 0.000116575
7 *568:A *559:A 0.000151069
8 *568:A *582:A 1.98057e-05
9 *568:A *62:24 2.28499e-05
10 *568:A *114:12 0
11 *568:A *177:14 0.000584593
12 *580:A *568:A 0
*RES
1 gpio_defaults[2] *568:A 36.3 
*END

*D_NET *10 0.00518895
*CONN
*P gpio_defaults[3] I
*I *557:A I *D sky130_fd_sc_hd__dlygate4sd3_1
*CAP
1 gpio_defaults[3] 0.00161841
2 *557:A 0.00161841
3 *557:A *599:A 0
4 *557:A *11:21 8.00951e-05
5 *557:A *153:18 0.00162013
6 *557:A *159:20 3.74403e-05
7 *557:A *177:14 9.78828e-05
8 *568:A *557:A 0.000116575
*RES
1 gpio_defaults[3] *557:A 46.6214 
*END

*D_NET *11 0.00656104
*CONN
*P gpio_defaults[4] I
*I *578:A I *D sky130_fd_sc_hd__dlygate4sd3_1
*CAP
1 gpio_defaults[4] 0.00169875
2 *578:A 0
3 *11:21 0.00169875
4 *11:21 *476:A_N 7.80714e-06
5 *11:21 *476:B 4.66511e-05
6 *11:21 *502:B 0.000311887
7 *11:21 *520:CLK_N 0
8 *11:21 *522:SET_B 5.54506e-05
9 *11:21 *525:D 3.10029e-05
10 *11:21 *582:A 0.000589555
11 *11:21 *616:A 0.000413613
12 *11:21 *43:169 0.000428912
13 *11:21 *43:178 0.0001819
14 *11:21 *136:10 0.000847779
15 *11:21 *153:18 9.88371e-05
16 *11:21 *177:14 7.00547e-05
17 *11:21 *189:10 0
18 *557:A *11:21 8.00951e-05
*RES
1 gpio_defaults[4] *11:21 47.9643 
2 *11:21 *578:A 9.3 
*END

*D_NET *12 0.00339357
*CONN
*P gpio_defaults[5] I
*I *582:A I *D sky130_fd_sc_hd__dlygate4sd3_1
*CAP
1 gpio_defaults[5] 0.00116971
2 *582:A 0.00116971
3 *582:A *522:CLK_N 1.92905e-05
4 *582:A *522:SET_B 7.83659e-05
5 *582:A *583:A 7.22589e-05
6 *582:A *602:A 6.08479e-05
7 *582:A *62:24 0.000213083
8 *582:A *148:112 9.33978e-07
9 *568:A *582:A 1.98057e-05
10 *11:21 *582:A 0.000589555
*RES
1 gpio_defaults[5] *582:A 33.2286 
*END

*D_NET *13 0.00239288
*CONN
*P gpio_defaults[6] I
*I *583:A I *D sky130_fd_sc_hd__dlygate4sd3_1
*CAP
1 gpio_defaults[6] 0.000652061
2 *583:A 0.000652061
3 *583:A pad_gpio_outenb 0.00017084
4 *583:A *584:A 0.000133861
5 *583:A *602:A 0.000108235
6 *583:A *114:12 0.000170955
7 *583:A *177:14 0.000291688
8 *580:A *583:A 0.000140921
9 *582:A *583:A 7.22589e-05
*RES
1 gpio_defaults[6] *583:A 28.3357 
*END

*D_NET *14 0.00631287
*CONN
*P gpio_defaults[7] I
*I *584:A I *D sky130_fd_sc_hd__dlygate4sd3_1
*CAP
1 gpio_defaults[7] 0.00200695
2 *584:A 0.00200695
3 *584:A pad_gpio_outenb 0.000598818
4 *584:A *559:A 2.69965e-05
5 *584:A *159:20 2.89114e-05
6 *580:A *584:A 0.00151039
7 *583:A *584:A 0.000133861
*RES
1 gpio_defaults[7] *584:A 42.3 
*END

*D_NET *15 0.00233041
*CONN
*P gpio_defaults[8] I
*I *559:A I *D sky130_fd_sc_hd__dlygate4sd3_1
*CAP
1 gpio_defaults[8] 0.000628546
2 *559:A 0.000628546
3 *559:A *579:A 6.90489e-05
4 *559:A *617:A 0
5 *559:A *114:12 0
6 *568:A *559:A 0.000151069
7 *580:A *559:A 0
8 *584:A *559:A 2.69965e-05
9 *3:19 *559:A 0.000826205
*RES
1 gpio_defaults[8] *559:A 36.8714 
*END

*D_NET *16 0.00149708
*CONN
*P gpio_defaults[9] I
*I *579:A I *D sky130_fd_sc_hd__dlygate4sd3_1
*CAP
1 gpio_defaults[9] 0.000614046
2 *579:A 0.000614046
3 *579:A pad_gpio_outenb 4.94382e-05
4 *579:A *602:A 6.76254e-05
5 *579:A *177:14 5.33005e-05
6 *558:A *579:A 2.95781e-05
7 *559:A *579:A 6.90489e-05
*RES
1 gpio_defaults[9] *579:A 23.2286 
*END

*D_NET *17 0.00092407
*CONN
*P mgmt_gpio_in O
*I *605:X O *D sky130_fd_sc_hd__buf_12
*CAP
1 mgmt_gpio_in 0.000462035
2 *605:X 0.000462035
3 mgmt_gpio_in *592:A 0
4 mgmt_gpio_in *594:A 0
5 mgmt_gpio_in *43:11 0
*RES
1 *605:X mgmt_gpio_in 24.3862 
*END

*D_NET *18 0.000905225
*CONN
*P mgmt_gpio_oeb I
*I *591:A I *D sky130_fd_sc_hd__clkbuf_1
*CAP
1 mgmt_gpio_oeb 0.000357587
2 *591:A 0.000357587
3 *591:A *488:A1 0.000190051
4 *591:A *592:A 0
5 *591:A *597:A 0
6 *591:A *116:24 0
*RES
1 mgmt_gpio_oeb *591:A 20.392 
*END

*D_NET *19 0.000548447
*CONN
*P mgmt_gpio_out I
*I *592:A I *D sky130_fd_sc_hd__clkbuf_1
*CAP
1 mgmt_gpio_out 0.000274223
2 *592:A 0.000274223
3 *592:A *43:11 0
4 mgmt_gpio_in *592:A 0
5 *591:A *592:A 0
*RES
1 mgmt_gpio_out *592:A 20.7797 
*END

*D_NET *20 0.00289295
*CONN
*P pad_gpio_ana_en O
*I *606:X O *D sky130_fd_sc_hd__buf_12
*CAP
1 pad_gpio_ana_en 0.000965467
2 *606:X 0.000965467
3 pad_gpio_ana_en pad_gpio_dm[0] 0
4 pad_gpio_ana_en pad_gpio_dm[1] 0
5 pad_gpio_ana_en pad_gpio_slow_sel 0
6 pad_gpio_ana_en *497:B 0.000144129
7 pad_gpio_ana_en *606:A 0.000135028
8 pad_gpio_ana_en *120:10 0.000352505
9 pad_gpio_ana_en *134:20 0.000330356
*RES
1 *606:X pad_gpio_ana_en 34.3352 
*END

*D_NET *21 0.00135592
*CONN
*P pad_gpio_ana_pol O
*I *607:X O *D sky130_fd_sc_hd__buf_12
*CAP
1 pad_gpio_ana_pol 0.000464889
2 *607:X 0.000438118
3 *21:15 2.67704e-05
4 pad_gpio_ana_pol pad_gpio_slew_ctl[0] 0
5 pad_gpio_ana_pol *501:B 0.000139323
6 pad_gpio_ana_pol *528:RESET_B 2.976e-05
7 pad_gpio_ana_pol *110:18 9.41642e-05
8 pad_gpio_ana_pol *134:20 1.30607e-05
9 pad_gpio_ana_pol *146:68 0.000129952
10 pad_gpio_ana_pol *146:79 1.98839e-05
11 *21:15 pad_gpio_inenb 0
12 *21:15 *33:15 0
*RES
1 *607:X pad_gpio_ana_pol 25.4154 
2 pad_gpio_ana_pol *21:15 0.0595333 
*END

*D_NET *22 0.00162622
*CONN
*P pad_gpio_ana_sel O
*I *608:X O *D sky130_fd_sc_hd__buf_12
*CAP
1 pad_gpio_ana_sel 0.000662957
2 *608:X 0.000662957
3 pad_gpio_ana_sel pad_gpio_inenb 0
4 pad_gpio_ana_sel pad_gpio_slew_ctl[1] 0
5 pad_gpio_ana_sel *546:RESET_B 5.33334e-05
6 pad_gpio_ana_sel *604:A 2.28541e-05
7 pad_gpio_ana_sel *608:A 0.000128154
8 pad_gpio_ana_sel *182:30 9.59623e-05
*RES
1 *608:X pad_gpio_ana_sel 23.1975 
*END

*D_NET *23 0.0015843
*CONN
*P pad_gpio_dm[0] O
*I *609:X O *D sky130_fd_sc_hd__buf_12
*CAP
1 pad_gpio_dm[0] 0.000676763
2 *609:X 0.000676763
3 pad_gpio_dm[0] *496:B 0
4 pad_gpio_dm[0] *523:SET_B 6.2169e-06
5 pad_gpio_dm[0] *609:A 0.000129868
6 pad_gpio_dm[0] *33:15 0
7 pad_gpio_dm[0] *123:26 9.46929e-05
8 pad_gpio_ana_en pad_gpio_dm[0] 0
*RES
1 *609:X pad_gpio_dm[0] 22.5202 
*END

*D_NET *24 0.00471192
*CONN
*P pad_gpio_dm[1] O
*I *610:X O *D sky130_fd_sc_hd__buf_12
*CAP
1 pad_gpio_dm[1] 0.00215567
2 *610:X 0.00215567
3 pad_gpio_dm[1] *524:RESET_B 0.000160489
4 pad_gpio_dm[1] *539:D 6.5185e-05
5 pad_gpio_dm[1] *573:A 0
6 pad_gpio_dm[1] *610:A 9.13455e-05
7 pad_gpio_dm[1] *35:15 0
8 pad_gpio_dm[1] *116:24 8.35642e-05
9 pad_gpio_ana_en pad_gpio_dm[1] 0
*RES
1 *610:X pad_gpio_dm[1] 27.5202 
*END

*D_NET *25 0.00150042
*CONN
*P pad_gpio_dm[2] O
*I *611:X O *D sky130_fd_sc_hd__buf_12
*CAP
1 pad_gpio_dm[2] 0.000557412
2 *611:X 0.000530642
3 *25:15 2.67704e-05
4 pad_gpio_dm[2] *473:A_N 0.000138579
5 pad_gpio_dm[2] *473:B 1.28809e-05
6 pad_gpio_dm[2] *525:SET_B 0.000139975
7 pad_gpio_dm[2] *43:178 9.41642e-05
8 *25:15 pad_gpio_holdover 0
9 *25:15 *27:15 0
*RES
1 *611:X pad_gpio_dm[2] 26.3261 
2 pad_gpio_dm[2] *25:15 0.0595333 
*END

*D_NET *26 0.00142616
*CONN
*P pad_gpio_holdover O
*I *612:X O *D sky130_fd_sc_hd__buf_12
*CAP
1 pad_gpio_holdover 0.000607914
2 *612:X 0.000607914
3 pad_gpio_holdover pad_gpio_out 0
4 pad_gpio_holdover *513:A 0.000137457
5 pad_gpio_holdover *525:RESET_B 0
6 pad_gpio_holdover *525:SET_B 1.94879e-05
7 pad_gpio_holdover *529:RESET_B 5.33882e-05
8 *25:15 pad_gpio_holdover 0
*RES
1 *612:X pad_gpio_holdover 20.2172 
*END

*D_NET *27 0.00102458
*CONN
*P pad_gpio_hys_trim O
*I *613:X O *D sky130_fd_sc_hd__buf_12
*CAP
1 pad_gpio_hys_trim 0.000485638
2 *613:X 0.000463388
3 *27:15 2.22503e-05
4 pad_gpio_hys_trim *500:B 5.33005e-05
5 pad_gpio_hys_trim *503:A 0
6 pad_gpio_hys_trim *147:40 0
7 *27:15 pad_gpio_slew_ctl[1] 0
8 *25:15 *27:15 0
*RES
1 *613:X pad_gpio_hys_trim 24.8618 
2 pad_gpio_hys_trim *27:15 0.0595333 
*END

*D_NET *28 0.00329266
*CONN
*P pad_gpio_ib_mode_sel O
*I *614:X O *D sky130_fd_sc_hd__buf_12
*CAP
1 pad_gpio_ib_mode_sel 0.000686464
2 *614:X 0.000668734
3 *28:19 1.77301e-05
4 pad_gpio_ib_mode_sel pad_gpio_outenb 0
5 pad_gpio_ib_mode_sel *495:A 1.00733e-05
6 pad_gpio_ib_mode_sel *614:A 9.41642e-05
7 pad_gpio_ib_mode_sel *616:A 0.000262504
8 pad_gpio_ib_mode_sel *62:24 0.000360059
9 pad_gpio_ib_mode_sel *147:101 6.595e-05
10 pad_gpio_ib_mode_sel *147:103 2.89016e-05
11 pad_gpio_ib_mode_sel *147:117 0.000504296
12 *28:19 pad_gpio_vtrip_sel 0
13 *28:19 *32:15 0
14 *558:A pad_gpio_ib_mode_sel 0.000593779
15 *601:A pad_gpio_ib_mode_sel 0
*RES
1 *614:X pad_gpio_ib_mode_sel 33.7546 
2 pad_gpio_ib_mode_sel *28:19 0.0595333 
*END

*D_NET *29 0.000697943
*CONN
*P pad_gpio_in I
*I *593:A I *D sky130_fd_sc_hd__buf_1
*CAP
1 pad_gpio_in 0.000348971
2 *593:A 0.000348971
3 *593:A *35:15 0
*RES
1 pad_gpio_in *593:A 19.8001 
*END

*D_NET *30 0.00158538
*CONN
*P pad_gpio_inenb O
*I *615:X O *D sky130_fd_sc_hd__buf_12
*CAP
1 pad_gpio_inenb 0.000561654
2 *615:X 0.000561654
3 pad_gpio_inenb *501:B 8.87411e-05
4 pad_gpio_inenb *134:20 4.18796e-05
5 pad_gpio_inenb *146:79 0.000331449
6 pad_gpio_ana_sel pad_gpio_inenb 0
7 *21:15 pad_gpio_inenb 0
*RES
1 *615:X pad_gpio_inenb 23.8907 
*END

*D_NET *31 0.00274229
*CONN
*P pad_gpio_out O
*I *616:X O *D sky130_fd_sc_hd__buf_12
*CAP
1 pad_gpio_out 0.000643166
2 *616:X 0.000643166
3 pad_gpio_out pad_gpio_vtrip_sel 0.000242283
4 pad_gpio_out *495:B 0.000206326
5 pad_gpio_out *520:RESET_B 0.000137179
6 pad_gpio_out *520:SET_B 0.000100831
7 pad_gpio_out *147:117 0.000222666
8 pad_gpio_out *182:30 0.000196839
9 pad_gpio_holdover pad_gpio_out 0
10 *5:21 pad_gpio_out 0.000349834
*RES
1 *616:X pad_gpio_out 28.1069 
*END

*D_NET *32 0.00341576
*CONN
*P pad_gpio_outenb O
*I *617:X O *D sky130_fd_sc_hd__buf_12
*CAP
1 pad_gpio_outenb 0.00105593
2 *617:X 0.0010382
3 *32:15 1.77301e-05
4 pad_gpio_outenb pad_gpio_vtrip_sel 0.00014904
5 pad_gpio_outenb *495:A 1.98839e-05
6 pad_gpio_outenb *495:B 5.47001e-05
7 pad_gpio_outenb *602:A 0.000261175
8 pad_gpio_ib_mode_sel pad_gpio_outenb 0
9 *579:A pad_gpio_outenb 4.94382e-05
10 *583:A pad_gpio_outenb 0.00017084
11 *584:A pad_gpio_outenb 0.000598818
12 *28:19 *32:15 0
*RES
1 *617:X pad_gpio_outenb 35.6832 
2 pad_gpio_outenb *32:15 0.0595333 
*END

*D_NET *33 0.00150857
*CONN
*P pad_gpio_slew_ctl[0] O
*I *618:X O *D sky130_fd_sc_hd__buf_12
*CAP
1 pad_gpio_slew_ctl[0] 0.000721431
2 *618:X 0.000699181
3 *33:15 2.22503e-05
4 pad_gpio_slew_ctl[0] *615:A 6.57032e-05
5 pad_gpio_ana_pol pad_gpio_slew_ctl[0] 0
6 pad_gpio_dm[0] *33:15 0
7 *21:15 *33:15 0
*RES
1 *618:X pad_gpio_slew_ctl[0] 28.0761 
2 pad_gpio_slew_ctl[0] *33:15 0.0595333 
*END

*D_NET *34 0.00232158
*CONN
*P pad_gpio_slew_ctl[1] O
*I *555:LO O *D sky130_fd_sc_hd__conb_1
*CAP
1 pad_gpio_slew_ctl[1] 0.00112659
2 *555:LO 0.00112659
3 pad_gpio_slew_ctl[1] *500:B 3.69047e-06
4 pad_gpio_slew_ctl[1] *571:A 2.59355e-05
5 pad_gpio_slew_ctl[1] *137:20 3.87787e-05
6 pad_gpio_ana_sel pad_gpio_slew_ctl[1] 0
7 *27:15 pad_gpio_slew_ctl[1] 0
*RES
1 *555:LO pad_gpio_slew_ctl[1] 22.0093 
*END

*D_NET *35 0.0040723
*CONN
*P pad_gpio_slow_sel O
*I *619:X O *D sky130_fd_sc_hd__buf_12
*CAP
1 pad_gpio_slow_sel 0.00103883
2 *619:X 0.0010211
3 *35:15 1.77301e-05
4 pad_gpio_slow_sel *484:A_N 0.000258165
5 pad_gpio_slow_sel *484:B 2.77366e-05
6 pad_gpio_slow_sel *497:A 0.00014211
7 pad_gpio_slow_sel *497:B 4.5632e-05
8 pad_gpio_slow_sel *519:SET_B 6.78212e-05
9 pad_gpio_slow_sel *524:RESET_B 0.000430687
10 pad_gpio_slow_sel *566:A 0.000760876
11 pad_gpio_slow_sel *619:A 0.000261609
12 pad_gpio_ana_en pad_gpio_slow_sel 0
13 pad_gpio_dm[1] *35:15 0
14 *593:A *35:15 0
*RES
1 *619:X pad_gpio_slow_sel 41.6296 
2 pad_gpio_slow_sel *35:15 0.0595333 
*END

*D_NET *36 0.00277506
*CONN
*P pad_gpio_vtrip_sel O
*I *620:X O *D sky130_fd_sc_hd__buf_12
*CAP
1 pad_gpio_vtrip_sel 0.000851478
2 *620:X 0.000851478
3 pad_gpio_vtrip_sel *495:A 0.000152199
4 pad_gpio_vtrip_sel *495:B 4.16427e-05
5 pad_gpio_vtrip_sel *520:RESET_B 1.02366e-05
6 pad_gpio_vtrip_sel *529:RESET_B 0.000176856
7 pad_gpio_vtrip_sel *117:14 3.63266e-05
8 pad_gpio_vtrip_sel *182:30 0.000141227
9 pad_gpio_out pad_gpio_vtrip_sel 0.000242283
10 pad_gpio_outenb pad_gpio_vtrip_sel 0.00014904
11 *4:19 pad_gpio_vtrip_sel 0.000122289
12 *28:19 pad_gpio_vtrip_sel 0
*RES
1 *620:X pad_gpio_vtrip_sel 28.9475 
*END

*D_NET *37 0.00653986
*CONN
*P resetn I
*I *200:A I *D sky130_fd_sc_hd__clkbuf_8
*I *554:A I *D sky130_fd_sc_hd__clkbuf_2
*CAP
1 resetn 0.00105171
2 *200:A 0.00102014
3 *554:A 0
4 *37:17 0.00207185
5 *200:A *486:A_N 0.000191309
6 *200:A *490:B 8.70269e-05
7 *200:A *531:D 1.91418e-05
8 *200:A *553:A 0.000371257
9 *200:A *43:26 0.000119999
10 *200:A *116:24 0
11 *200:A *143:12 0.000548704
12 *200:A *148:8 0.000107416
13 *200:A *159:20 0.000209212
14 *200:A *178:10 0.000147195
15 *37:17 *39:9 0.000177184
16 *37:17 *43:11 0
17 *37:17 *116:24 4.51902e-05
18 *37:17 *143:12 0.000372522
*RES
1 resetn *37:17 23.2677 
2 *37:17 *554:A 13.8 
3 *37:17 *200:A 38.7464 
*END

*D_NET *38 0.000514214
*CONN
*P resetn_out O
*I *200:X O *D sky130_fd_sc_hd__clkbuf_8
*CAP
1 resetn_out 0.000257107
2 *200:X 0.000257107
3 resetn_out serial_clock_out 0
4 resetn_out serial_load_out 0
5 resetn_out user_gpio_in 0
*RES
1 *200:X resetn_out 20.2797 
*END

*D_NET *39 0.0241364
*CONN
*P serial_clock I
*I *530:CLK I *D sky130_fd_sc_hd__dfrtp_1
*I *538:CLK I *D sky130_fd_sc_hd__dfrtp_1
*I *536:CLK I *D sky130_fd_sc_hd__dfrtp_1
*I *543:CLK I *D sky130_fd_sc_hd__dfrtp_1
*I *544:CLK I *D sky130_fd_sc_hd__dfrtp_1
*I *534:CLK I *D sky130_fd_sc_hd__dfrtp_1
*I *533:CLK I *D sky130_fd_sc_hd__dfrtp_1
*I *201:A I *D sky130_fd_sc_hd__clkbuf_8
*I *532:CLK I *D sky130_fd_sc_hd__dfrtp_1
*I *531:CLK I *D sky130_fd_sc_hd__dfrtp_1
*I *472:A I *D sky130_fd_sc_hd__inv_2
*I *545:CLK I *D sky130_fd_sc_hd__dfrtp_1
*I *535:CLK I *D sky130_fd_sc_hd__dfrtp_1
*I *537:CLK I *D sky130_fd_sc_hd__dfrtp_1
*I *542:CLK I *D sky130_fd_sc_hd__dfrtp_1
*I *540:CLK I *D sky130_fd_sc_hd__dfrtp_1
*I *539:CLK I *D sky130_fd_sc_hd__dfrtp_1
*I *541:CLK I *D sky130_fd_sc_hd__dfrtp_1
*CAP
1 serial_clock 0.000419105
2 *530:CLK 0.000194724
3 *538:CLK 3.78541e-05
4 *536:CLK 0.00031628
5 *543:CLK 0.0002786
6 *544:CLK 0.000173484
7 *534:CLK 0.000211243
8 *533:CLK 0.000326241
9 *201:A 5.6032e-05
10 *532:CLK 8.74893e-05
11 *531:CLK 0.000235111
12 *472:A 2.43689e-05
13 *545:CLK 0
14 *535:CLK 0
15 *537:CLK 0
16 *542:CLK 0
17 *540:CLK 0.000617091
18 *539:CLK 0
19 *541:CLK 0.00036903
20 *39:190 0.000479702
21 *39:166 0.000921082
22 *39:151 0.000502577
23 *39:140 0.000301945
24 *39:125 0.00114778
25 *39:114 0.000955768
26 *39:105 0.000488265
27 *39:97 0.000582517
28 *39:86 0.000534993
29 *39:73 0.000672559
30 *39:69 0.00135366
31 *39:41 0.000637259
32 *39:34 0.000162096
33 *39:21 0.00105201
34 *39:15 0.00120399
35 *39:13 0.000841113
36 *39:9 0.00141709
37 *201:A *43:38 5.03772e-05
38 *472:A *588:A 9.35228e-06
39 *530:CLK *594:A 0
40 *530:CLK *43:11 0.000363625
41 *531:CLK *531:D 9.0435e-05
42 *532:CLK *199:A 1.98839e-05
43 *532:CLK *43:32 2.59355e-05
44 *533:CLK *494:B 9.31011e-05
45 *533:CLK *533:D 2.89114e-05
46 *533:CLK *547:RESET_B 0.000102056
47 *533:CLK *599:A 2.11543e-05
48 *533:CLK *148:133 2.11419e-05
49 *534:CLK *534:D 0
50 *534:CLK *547:CLK 1.85586e-05