*SPEF "ieee 1481-1999"
*DESIGN "gpio_control_block_mgmt_monitor"
*DATE "21:20:44 Saturday June 14, 2025"
*VENDOR "The OpenROAD Project"
*PROGRAM "OpenROAD"
*VERSION "edf00dff99f6c40d67a30c0e22a8191c5d2ed9d6"
*DESIGN_FLOW "NAME_SCOPE LOCAL" "PIN_CAP NONE"
*DIVIDER /
*DELIMITER :
*BUS_DELIMITER []
*T_UNIT 1 NS
*C_UNIT 1 PF
*R_UNIT 1 OHM
*L_UNIT 1 HENRY

*NAME_MAP
*1 gpio_defaults[0]
*2 gpio_defaults[10]
*3 gpio_defaults[11]
*4 gpio_defaults[12]
*5 gpio_defaults[13]
*6 gpio_defaults[14]
*7 gpio_defaults[15]
*8 gpio_defaults[1]
*9 gpio_defaults[2]
*10 gpio_defaults[3]
*11 gpio_defaults[4]
*12 gpio_defaults[5]
*13 gpio_defaults[6]
*14 gpio_defaults[7]
*15 gpio_defaults[8]
*16 gpio_defaults[9]
*17 mgmt_gpio_in
*18 mgmt_gpio_oeb
*19 mgmt_gpio_out
*20 pad_gpio_ana_en
*21 pad_gpio_ana_pol
*22 pad_gpio_ana_sel
*23 pad_gpio_dm[0]
*24 pad_gpio_dm[1]
*25 pad_gpio_dm[2]
*26 pad_gpio_holdover
*27 pad_gpio_hys_trim
*28 pad_gpio_ib_mode_sel
*29 pad_gpio_in
*30 pad_gpio_inenb
*31 pad_gpio_out
*32 pad_gpio_outenb
*33 pad_gpio_slew_ctl[0]
*34 net44
*35 pad_gpio_slow_sel
*36 pad_gpio_vtrip_sel
*37 resetn
*38 resetn_out
*39 serial_clock
*40 serial_clock_out
*41 serial_data_in
*42 serial_data_out
*43 serial_load
*44 serial_load_out
*45 user_gpio_in
*46 user_gpio_oeb
*47 user_gpio_out
*52 _000_
*53 _001_
*54 _002_
*55 _003_
*56 _004_
*57 _005_
*58 _006_
*59 _007_
*60 _008_
*61 _009_
*62 _010_
*63 _011_
*64 _012_
*65 _013_
*66 _014_
*67 _015_
*68 _016_
*69 _017_
*70 _018_
*71 _019_
*72 _020_
*73 _021_
*74 _022_
*75 _023_
*76 _024_
*77 _025_
*78 _026_
*79 _027_
*80 _028_
*81 _029_
*82 _030_
*83 _031_
*84 _032_
*85 _033_
*86 _034_
*87 _035_
*88 _036_
*89 _037_
*90 _038_
*91 _039_
*92 _040_
*93 _041_
*94 _042_
*95 _043_
*96 _044_
*97 _045_
*98 _046_
*99 _047_
*100 _048_
*101 _049_
*102 _050_
*103 _051_
*104 _052_
*105 _053_
*106 _054_
*107 _055_
*108 _056_
*109 gpio_logic1
*110 gpio_slew_ctl
*111 mgmt_ena
*112 net1
*113 net10
*114 net11
*115 net12
*116 net13
*117 net14
*118 net15
*119 net16
*120 net17
*121 net18
*122 net19
*123 net2
*124 net20
*125 net21
*126 net22
*127 net23
*128 net24
*129 net25
*130 net26
*131 net27
*132 net28
*133 net29
*134 net3
*135 net30
*136 net31
*137 net32
*138 net33
*139 net34
*140 net35
*141 net36
*142 net37
*143 net38
*144 net39
*145 net4
*146 net40
*147 net41
*148 net42
*149 net43
*150 net45
*151 net46
*152 net47
*153 net48
*154 net49
*155 net5
*156 net50
*157 net51
*158 net52
*159 net53
*160 net54
*161 net55
*162 net56
*163 net57
*164 net58
*165 net59
*166 net6
*167 net60
*168 net61
*169 net62
*170 net63
*171 net64
*172 net65
*173 net66
*174 net67
*175 net68
*176 net69
*177 net7
*178 net70
*179 net71
*180 net72
*181 net8
*182 net9
*183 shift_register\[0\]
*184 shift_register\[10\]
*185 shift_register\[11\]
*186 shift_register\[12\]
*187 shift_register\[13\]
*188 shift_register\[14\]
*189 shift_register\[15\]
*190 shift_register\[1\]
*191 shift_register\[2\]
*192 shift_register\[3\]
*193 shift_register\[4\]
*194 shift_register\[5\]
*195 shift_register\[6\]
*196 shift_register\[7\]
*197 shift_register\[8\]
*198 shift_register\[9\]
*199 BUF\[0\]
*200 BUF\[1\]
*201 BUF\[2\]
*202 FILLER_0_23
*203 FILLER_0_35
*204 FILLER_0_47
*205 FILLER_0_49
*206 FILLER_0_57
*207 FILLER_0_77
*208 FILLER_10_15
*209 FILLER_10_27
*210 FILLER_10_29
*211 FILLER_10_3
*212 FILLER_10_37
*213 FILLER_10_70
*214 FILLER_10_80
*215 FILLER_10_90
*216 FILLER_11_25
*217 FILLER_11_47
*218 FILLER_11_57
*219 FILLER_11_9
*220 FILLER_12_22
*221 FILLER_12_29
*222 FILLER_12_3
*223 FILLER_12_45
*224 FILLER_12_53
*225 FILLER_12_67
*226 FILLER_12_90
*227 FILLER_13_3
*228 FILLER_13_40
*229 FILLER_13_52
*230 FILLER_13_57
*231 FILLER_13_74
*232 FILLER_14_19
*233 FILLER_14_35
*234 FILLER_14_83
*235 FILLER_14_90
*236 FILLER_15_24
*237 FILLER_15_3
*238 FILLER_15_34
*239 FILLER_15_61
*240 FILLER_15_90
*241 FILLER_16_18
*242 FILLER_16_90
*243 FILLER_17_55
*244 FILLER_17_57
*245 FILLER_18_14
*246 FILLER_18_29
*247 FILLER_18_59
*248 FILLER_18_90
*249 FILLER_19_43
*250 FILLER_19_90
*251 FILLER_1_23
*252 FILLER_1_29
*253 FILLER_1_66
*254 FILLER_1_72
*255 FILLER_1_77
*256 FILLER_1_85
*257 FILLER_20_29
*258 FILLER_20_3
*259 FILLER_20_83
*260 FILLER_20_90
*261 FILLER_21_19
*262 FILLER_21_62
*263 FILLER_22_29
*264 FILLER_22_90
*265 FILLER_23_3
*266 FILLER_23_90
*267 FILLER_2_28
*268 FILLER_2_40
*269 FILLER_2_44
*270 FILLER_2_57
*271 FILLER_2_91
*272 FILLER_3_23
*273 FILLER_3_31
*274 FILLER_3_90
*275 FILLER_4_15
*276 FILLER_4_27
*277 FILLER_4_29
*278 FILLER_4_3
*279 FILLER_4_35
*280 FILLER_4_80
*281 FILLER_4_90
*282 FILLER_5_15
*283 FILLER_5_27
*284 FILLER_5_3
*285 FILLER_5_57
*286 FILLER_5_63
*287 FILLER_6_17
*288 FILLER_6_25
*289 FILLER_6_29
*290 FILLER_6_37
*291 FILLER_6_66
*292 FILLER_6_9
*293 FILLER_6_90
*294 FILLER_7_23
*295 FILLER_7_35
*296 FILLER_7_47
*297 FILLER_7_57
*298 FILLER_8_19
*299 FILLER_8_27
*300 FILLER_8_29
*301 FILLER_8_41
*302 FILLER_8_90
*303 FILLER_9_18
*304 FILLER_9_30
*305 FILLER_9_34
*306 FILLER_9_55
*307 FILLER_9_57
*308 FILLER_9_6
*309 PHY_EDGE_ROW_0_2_Left_3
*310 PHY_EDGE_ROW_0_2_Right_27
*311 PHY_EDGE_ROW_10_Left_34
*312 PHY_EDGE_ROW_10_Right_13
*313 PHY_EDGE_ROW_11_Left_35
*314 PHY_EDGE_ROW_11_Right_14
*315 PHY_EDGE_ROW_12_Left_36
*316 PHY_EDGE_ROW_12_Right_15
*317 PHY_EDGE_ROW_13_Left_37
*318 PHY_EDGE_ROW_13_Right_16
*319 PHY_EDGE_ROW_14_Left_38
*320 PHY_EDGE_ROW_14_Right_17
*321 PHY_EDGE_ROW_15_Left_39
*322 PHY_EDGE_ROW_15_Right_18
*323 PHY_EDGE_ROW_16_Left_40
*324 PHY_EDGE_ROW_16_Right_19
*325 PHY_EDGE_ROW_17_Left_41
*326 PHY_EDGE_ROW_17_Right_20
*327 PHY_EDGE_ROW_18_Left_42
*328 PHY_EDGE_ROW_18_Right_21
*329 PHY_EDGE_ROW_19_Left_43
*330 PHY_EDGE_ROW_19_Right_22
*331 PHY_EDGE_ROW_1_2_Left_0
*332 PHY_EDGE_ROW_1_2_Right_4
*333 PHY_EDGE_ROW_20_Left_44
*334 PHY_EDGE_ROW_20_Right_23
*335 PHY_EDGE_ROW_21_Left_45
*336 PHY_EDGE_ROW_21_Right_24
*337 PHY_EDGE_ROW_22_Left_46
*338 PHY_EDGE_ROW_22_Right_25
*339 PHY_EDGE_ROW_23_Left_47
*340 PHY_EDGE_ROW_23_Right_26
*341 PHY_EDGE_ROW_2_2_Left_1
*342 PHY_EDGE_ROW_2_2_Right_5
*343 PHY_EDGE_ROW_3_2_Left_2
*344 PHY_EDGE_ROW_3_2_Right_6
*345 PHY_EDGE_ROW_4_Left_28
*346 PHY_EDGE_ROW_4_Right_7
*347 PHY_EDGE_ROW_5_Left_29
*348 PHY_EDGE_ROW_5_Right_8
*349 PHY_EDGE_ROW_6_Left_30
*350 PHY_EDGE_ROW_6_Right_9
*351 PHY_EDGE_ROW_7_Left_31
*352 PHY_EDGE_ROW_7_Right_10
*353 PHY_EDGE_ROW_8_Left_32
*354 PHY_EDGE_ROW_8_Right_11
*355 PHY_EDGE_ROW_9_Left_33
*356 PHY_EDGE_ROW_9_Right_12
*357 TAP_TAPCELL_ROW_0_2_84
*358 TAP_TAPCELL_ROW_0_2_85
*359 TAP_TAPCELL_ROW_10_61
*360 TAP_TAPCELL_ROW_10_62
*361 TAP_TAPCELL_ROW_11_63
*362 TAP_TAPCELL_ROW_12_64
*363 TAP_TAPCELL_ROW_12_65
*364 TAP_TAPCELL_ROW_13_66
*365 TAP_TAPCELL_ROW_14_67
*366 TAP_TAPCELL_ROW_14_68
*367 TAP_TAPCELL_ROW_15_69
*368 TAP_TAPCELL_ROW_16_70
*369 TAP_TAPCELL_ROW_16_71
*370 TAP_TAPCELL_ROW_17_72
*371 TAP_TAPCELL_ROW_18_73
*372 TAP_TAPCELL_ROW_18_74
*373 TAP_TAPCELL_ROW_19_75
*374 TAP_TAPCELL_ROW_1_2_48
*375 TAP_TAPCELL_ROW_20_76
*376 TAP_TAPCELL_ROW_20_77
*377 TAP_TAPCELL_ROW_21_78
*378 TAP_TAPCELL_ROW_22_79
*379 TAP_TAPCELL_ROW_22_80
*380 TAP_TAPCELL_ROW_23_81
*381 TAP_TAPCELL_ROW_23_82
*382 TAP_TAPCELL_ROW_23_83
*383 TAP_TAPCELL_ROW_2_2_49
*384 TAP_TAPCELL_ROW_3_2_50
*385 TAP_TAPCELL_ROW_4_51
*386 TAP_TAPCELL_ROW_4_52
*387 TAP_TAPCELL_ROW_4_53
*388 TAP_TAPCELL_ROW_5_54
*389 TAP_TAPCELL_ROW_6_55
*390 TAP_TAPCELL_ROW_6_56
*391 TAP_TAPCELL_ROW_7_57
*392 TAP_TAPCELL_ROW_8_58
*393 TAP_TAPCELL_ROW_8_59
*394 TAP_TAPCELL_ROW_9_60
*395 _057_
*396 _058_
*397 _059_
*398 _060_
*399 _061_
*400 _062_
*401 _063_
*402 _064_
*403 _065_
*404 _066_
*405 _067_
*406 _068_
*407 _069_
*408 _070_
*409 _071_
*410 _072_
*411 _073_
*412 _074_
*413 _075_
*414 _076_
*415 _077_
*416 _078_
*417 _079_
*418 _080_
*419 _081_
*420 _082_
*421 _083_
*422 _084_
*423 _085_
*424 _086_
*425 _087_
*426 _088_
*427 _089_
*428 _090_
*429 _091_
*430 _092_
*431 _093_
*432 _094_
*433 _095_
*434 _096_
*435 _097_
*436 _098_
*437 _099_
*438 _100_
*439 _101_
*440 _102_
*441 _103_
*442 _104_
*443 _105_
*444 _106_
*445 _107_
*446 _108_
*447 _109_
*448 _110_
*449 _111_
*450 _112_
*451 _113_
*452 _114_
*453 _115_
*454 _116_
*455 _117_
*456 _118_
*457 _119_
*458 _120_
*459 _121_
*460 _122_
*461 _123_
*462 _124_
*463 _125_
*464 _126_
*465 _127_
*466 _128_
*467 _129_
*468 _130_
*469 _131_
*470 _132_
*471 _133_
*472 _135_
*473 _136_
*474 fanout39
*475 fanout40
*476 fanout41
*477 fanout42
*478 fanout43
*479 gpio_control_block_mgmt_monitor_44
*480 gpio_logic_high
*481 hold1
*482 hold10
*483 hold11
*484 hold12
*485 hold13
*486 hold14
*487 hold15
*488 hold16
*489 hold17
*490 hold18
*491 hold19
*492 hold2
*493 hold20
*494 hold21
*495 hold22
*496 hold23
*497 hold24
*498 hold25
*499 hold26
*500 hold27
*501 hold28
*502 hold3
*503 hold4
*504 hold5
*505 hold6
*506 hold7
*507 hold8
*508 hold9
*509 input1
*510 input10
*511 input11
*512 input12
*513 input13
*514 input14
*515 input15
*516 input16
*517 input17
*518 input18
*519 input19
*520 input2
*521 input20
*522 input3
*523 input4
*524 input5
*525 input6
*526 input7
*527 input8
*528 input9
*529 output21
*530 output22
*531 output23
*532 output24
*533 output25
*534 output26
*535 output27
*536 output28
*537 output29
*538 output30
*539 output31
*540 output32
*541 output33
*542 output34
*543 output35
*544 output36
*545 output37
*546 output38

*PORTS
gpio_defaults[0] I
gpio_defaults[10] I
gpio_defaults[11] I
gpio_defaults[12] I
gpio_defaults[13] I
gpio_defaults[14] I
gpio_defaults[15] I
gpio_defaults[1] I
gpio_defaults[2] I
gpio_defaults[3] I
gpio_defaults[4] I
gpio_defaults[5] I
gpio_defaults[6] I
gpio_defaults[7] I
gpio_defaults[8] I
gpio_defaults[9] I
mgmt_gpio_in O
mgmt_gpio_oeb I
mgmt_gpio_out I
pad_gpio_ana_en O
pad_gpio_ana_pol O
pad_gpio_ana_sel O
pad_gpio_dm[0] O
pad_gpio_dm[1] O
pad_gpio_dm[2] O
pad_gpio_holdover O
pad_gpio_hys_trim O
pad_gpio_ib_mode_sel O
pad_gpio_in I
pad_gpio_inenb O
pad_gpio_out O
pad_gpio_outenb O
pad_gpio_slew_ctl[0] O
pad_gpio_slew_ctl[1] O
pad_gpio_slow_sel O
pad_gpio_vtrip_sel O
resetn I
resetn_out O
serial_clock I
serial_clock_out O
serial_data_in I
serial_data_out O
serial_load I
serial_load_out O
user_gpio_in O
user_gpio_oeb I
user_gpio_out I

*D_NET *1 0.00378113
*CONN
*P gpio_defaults[0] I
*I *504:A I *D sky130_fd_sc_hd__dlygate4sd3_1
*CAP
1 gpio_defaults[0] 0.000737078
2 *504:A 0
3 *1:13 0.000737078
4 *1:13 *511:A 0.000137039
5 *1:13 *3:19 0.000304631
6 *1:13 *9:13 0
7 *1:13 *13:15 0.000145547
8 *1:13 *14:15 0.00153362
9 *1:13 *15:15 0
10 *1:13 *114:8 3.40295e-05
11 *1:13 *159:12 9.30575e-05
12 *1:13 *162:8 5.9055e-05
*RES
1 gpio_defaults[0] *1:13 36.1286 
2 *1:13 *504:A 23 
*END

*D_NET *2 0.0043938
*CONN
*P gpio_defaults[10] I
*I *482:A I *D sky130_fd_sc_hd__dlygate4sd3_1
*CAP
1 gpio_defaults[10] 0.00123901
2 *482:A 0
3 *2:23 0.00123901
4 *2:23 *503:A 3.03828e-05
5 *2:23 *3:11 0
6 *2:23 *28:10 0.00059776
7 *2:23 *60:10 0.0002263
8 *2:23 *62:14 0.000678561
9 *2:23 *137:24 2.05664e-05
10 *2:23 *153:18 0.000305508
11 *2:23 *161:12 5.67058e-05
*RES
1 gpio_defaults[10] *2:23 40.0229 
2 *2:23 *482:A 23 
*END

*D_NET *3 0.00589047
*CONN
*P gpio_defaults[11] I
*I *484:A I *D sky130_fd_sc_hd__dlygate4sd3_1
*CAP
1 gpio_defaults[11] 0.00199538
2 *484:A 0
3 *3:19 0.000353465
4 *3:11 0.00234885
5 *3:11 *4:11 3.75763e-05
6 *3:11 *15:15 0.000821937
7 *3:19 *162:8 2.86398e-05
8 *1:13 *3:19 0.000304631
9 *2:23 *3:11 0
*RES
1 gpio_defaults[11] *3:11 41.8457 
2 *3:11 *3:19 35.3857 
3 *3:19 *484:A 23 
*END

*D_NET *4 0.0071989
*CONN
*P gpio_defaults[12] I
*I *505:A I *D sky130_fd_sc_hd__dlygate4sd3_1
*CAP
1 gpio_defaults[12] 0.00267054
2 *505:A 0
3 *4:19 0.00022553
4 *4:11 0.00289607
5 *4:11 *419:B 1.03203e-05
6 *4:11 *445:D 5.42593e-05
7 *4:11 *453:D 4.03039e-05
8 *4:11 *544:A 0.000116422
9 *4:11 *5:17 0
10 *4:11 *36:14 0.000123967
11 *4:11 *58:10 7.68979e-05
12 *4:11 *83:14 4.03039e-05
13 *4:11 *89:24 7.53384e-06
14 *4:11 *147:117 5.3304e-05
15 *4:11 *147:131 0.000720952
16 *4:11 *182:38 4.51485e-05
17 *4:19 *153:18 2.64616e-05
18 *4:19 *161:12 5.3304e-05
19 *3:11 *4:11 3.75763e-05
*RES
1 gpio_defaults[12] *4:11 49.9657 
2 *4:11 *4:19 32.5271 
3 *4:19 *505:A 23 
*END

*D_NET *5 0.0107566
*CONN
*P gpio_defaults[13] I
*I *524:A I *D sky130_fd_sc_hd__clkbuf_1
*CAP
1 gpio_defaults[13] 0.0010497
2 *524:A 0.000224668
3 *5:23 0.00185343
4 *5:17 0.00267845
5 *524:A *39:105 0.000430644
6 *524:A *39:190 4.08664e-05
7 *524:A *134:10 0.000640203
8 *524:A *162:20 8.27123e-05
9 *5:17 *407:B 0.000224529
10 *5:17 *417:B 0.000160756
11 *5:17 *419:B 0.0004564
12 *5:17 *449:RESET_B 3.22879e-05
13 *5:17 *449:SET_B 3.17209e-05
14 *5:17 *7:11 0.000109277
15 *5:17 *31:10 0.000385303
16 *5:17 *62:8 8.27285e-05
17 *5:17 *76:8 2.88514e-05
18 *5:17 *131:10 0.000184034
19 *5:17 *133:12 0.00012231
20 *5:17 *145:30 0.000271112
21 *5:17 *182:30 0.000302741
22 *5:23 *415:A 1.59094e-05
23 *5:23 *449:CLK_N 0.000108098
24 *5:23 *467:RESET_B 0
25 *5:23 *39:97 3.33082e-05
26 *5:23 *39:196 0.000368946
27 *5:23 *54:10 3.31953e-06
28 *5:23 *55:8 4.22083e-05
29 *5:23 *76:8 2.96028e-05
30 *5:23 *114:14 0.000400888
31 *5:23 *149:60 2.60587e-05
32 *5:23 *176:12 2.61642e-05
33 *5:23 *179:29 0.000280698
34 *5:23 *191:10 2.86398e-05
35 *4:11 *5:17 0
*RES
1 gpio_defaults[13] *5:17 41.9907 
2 *5:17 *5:23 37.8064 
3 *5:23 *524:A 45.2914 
*END

*D_NET *7 0.00624313
*CONN
*P gpio_defaults[15] I
*I *525:A I *D sky130_fd_sc_hd__clkbuf_1
*CAP
1 gpio_defaults[15] 0.00220929
2 *525:A 5.67488e-05
3 *7:11 0.00226604
4 *525:A *149:74 0
5 *7:11 pad_gpio_ib_mode_sel 0
6 *7:11 *407:B 4.78267e-05
7 *7:11 *417:B 7.53879e-05
8 *7:11 *444:SET_B 7.15867e-05
9 *7:11 *62:8 3.58626e-05
10 *7:11 *77:8 4.0266e-05
11 *7:11 *133:12 0.00043009
12 *7:11 *141:8 1.14581e-05
13 *7:11 *147:84 0.000277161
14 *7:11 *147:101 0.000388073
15 *7:11 *149:74 2.02872e-05
16 *7:11 *166:8 0.000136738
17 *7:11 *180:37 6.70361e-05
18 *5:17 *7:11 0.000109277
*RES
1 gpio_defaults[15] *7:11 49.7379 
2 *7:11 *525:A 24.2014 
*END

*D_NET *9 0.00466265
*CONN
*P gpio_defaults[2] I
*I *492:A I *D sky130_fd_sc_hd__dlygate4sd3_1
*CAP
1 gpio_defaults[2] 0.0017027
2 *492:A 0
3 *9:13 0.0017027
4 *9:13 *446:RESET_B 2.32004e-05
5 *9:13 *10:11 0.000120338
6 *9:13 *12:21 1.92118e-05
7 *9:13 *15:15 0.000155053
8 *9:13 *60:10 0
9 *9:13 *90:12 0.000296214
10 *9:13 *114:14 0
11 *9:13 *176:27 0
12 *9:13 *177:14 0.000643233
13 *1:13 *9:13 0
*RES
1 gpio_defaults[2] *9:13 41.1 
2 *9:13 *492:A 23 
*END

*D_NET *10 0.00560636
*CONN
*P gpio_defaults[3] I
*I *481:A I *D sky130_fd_sc_hd__dlygate4sd3_1
*CAP
1 gpio_defaults[3] 0.00174216
2 *481:A 0
3 *10:17 6.72823e-05
4 *10:11 0.00180944
5 *10:11 *11:15 7.86182e-05
6 *10:11 *153:8 3.58626e-05
7 *10:11 *153:18 0.00160737
8 *10:11 *177:14 0.000106814
9 *10:17 *156:12 0
10 *10:17 *159:12 3.84656e-05
11 *9:13 *10:11 0.000120338
*RES
1 gpio_defaults[3] *10:11 41.4314 
2 *10:11 *10:17 31.2014 
3 *10:17 *481:A 23 
*END

*D_NET *11 0.00752475
*CONN
*P gpio_defaults[4] I
*I *502:A I *D sky130_fd_sc_hd__dlygate4sd3_1
*CAP
1 gpio_defaults[4] 0.0015838
2 *502:A 0
3 *11:21 0.000482356
4 *11:15 0.00206616
5 *11:15 *400:B 5.15096e-05
6 *11:15 *426:B 0.000344112
7 *11:15 *444:CLK_N 0
8 *11:15 *12:21 0.000638953
9 *11:15 *43:169 0.000432287
10 *11:15 *43:178 0.000185922
11 *11:15 *63:8 5.79934e-05
12 *11:15 *136:10 0.000935425
13 *11:15 *149:74 7.76364e-06
14 *11:15 *153:8 0.000108194
15 *11:15 *177:14 6.88281e-05
16 *11:15 *179:29 2.96478e-05
17 *11:15 *189:10 0
18 *11:21 *137:24 0.000453183
19 *10:11 *11:15 7.86182e-05
*RES
1 gpio_defaults[4] *11:15 48.495 
2 *11:15 *11:21 36.4836 
3 *11:21 *502:A 23 
*END

*D_NET *12 0.00380775
*CONN
*P gpio_defaults[5] I
*I *506:A I *D sky130_fd_sc_hd__dlygate4sd3_1
*CAP
1 gpio_defaults[5] 0.0013386
2 *506:A 0
3 *12:21 0.0013386
4 *12:21 *446:CLK_N 1.94812e-05
5 *12:21 *446:RESET_B 0.000228836
6 *12:21 *526:A 6.22219e-05
7 *12:21 *13:15 7.46656e-05
8 *12:21 *63:8 8.62876e-05
9 *12:21 *148:112 8.91468e-07
10 *9:13 *12:21 1.92118e-05
11 *11:15 *12:21 0.000638953
*RES
1 gpio_defaults[5] *12:21 37.5371 
2 *12:21 *506:A 23 
*END

*D_NET *13 0.00263594
*CONN
*P gpio_defaults[6] I
*I *507:A I *D sky130_fd_sc_hd__dlygate4sd3_1
*CAP
1 gpio_defaults[6] 0.000764173
2 *507:A 0
3 *13:15 0.000764173
4 *13:15 *526:A 0.000108962
5 *13:15 *14:15 0.000134006
6 *13:15 *32:6 0.000175635
7 *13:15 *114:8 0.000173442
8 *13:15 *177:12 0.000295334
9 *1:13 *13:15 0.000145547
10 *12:21 *13:15 7.46656e-05
*RES
1 gpio_defaults[6] *13:15 31.8614 
2 *13:15 *507:A 23 
*END

*D_NET *14 0.00666611
*CONN
*P gpio_defaults[7] I
*I *508:A I *D sky130_fd_sc_hd__dlygate4sd3_1
*CAP
1 gpio_defaults[7] 0.0021684
2 *508:A 0
3 *14:15 0.0021684
4 *14:15 *15:15 2.73376e-05
5 *14:15 *32:6 0.000604954
6 *14:15 *159:12 2.93845e-05
7 *1:13 *14:15 0.00153362
8 *13:15 *14:15 0.000134006
*RES
1 gpio_defaults[7] *14:15 48.06 
2 *14:15 *508:A 23 
*END

*D_NET *15 0.00255591
*CONN
*P gpio_defaults[8] I
*I *483:A I *D sky130_fd_sc_hd__dlygate4sd3_1
*CAP
1 gpio_defaults[8] 0.000739495
2 *483:A 0
3 *15:15 0.000739495
4 *15:15 *503:A 7.25917e-05
5 *15:15 *114:14 0
6 *15:15 *138:10 0
7 *1:13 *15:15 0
8 *3:11 *15:15 0.000821937
9 *9:13 *15:15 0.000155053
10 *14:15 *15:15 2.73376e-05
*RES
1 gpio_defaults[8] *15:15 46.3229 
2 *15:15 *483:A 38 
*END

*D_NET *16 0.00170845
*CONN
*P gpio_defaults[9] I
*I *503:A I *D sky130_fd_sc_hd__dlygate4sd3_1
*CAP
1 gpio_defaults[9] 0.000716641
2 *503:A 0.000716641
3 *503:A *526:A 6.92143e-05
4 *503:A *32:6 4.96795e-05
5 *503:A *177:12 5.3304e-05
6 *2:23 *503:A 3.03828e-05
7 *15:15 *503:A 7.25917e-05
*RES
1 gpio_defaults[9] *503:A 48.9371 
*END

*D_NET *17 0.00100254
*CONN
*P mgmt_gpio_in O
*I *529:X O *D sky130_fd_sc_hd__buf_12
*CAP
1 mgmt_gpio_in 4.08584e-05
2 *529:X 0.000460413
3 *17:10 0.000501272
4 mgmt_gpio_in *19:13 0
5 mgmt_gpio_in *41:13 0
6 *17:10 *19:13 0
7 *17:10 *43:11 0
*RES
1 *529:X *17:10 46.1718 
2 *17:10 mgmt_gpio_in 8.1568 
*END

*D_NET *18 0.000987278
*CONN
*P mgmt_gpio_oeb I
*I *515:A I *D sky130_fd_sc_hd__clkbuf_1
*CAP
1 mgmt_gpio_oeb 0.000388156
2 *515:A 0.000388156
3 *515:A *521:A 0
4 *515:A *19:13 0
5 *515:A *116:18 0
6 *515:A *119:8 0.000210966
*RES
1 mgmt_gpio_oeb *515:A 49.7157 
*END

*D_NET *19 0.000592404
*CONN
*P mgmt_gpio_out I
*I *516:A I *D sky130_fd_sc_hd__clkbuf_1
*CAP
1 mgmt_gpio_out 0.000296202
2 *516:A 0
3 *19:13 0.000296202
4 *19:13 *43:11 0
5 mgmt_gpio_in *19:13 0
6 *515:A *19:13 0
7 *17:10 *19:13 0
*RES
1 mgmt_gpio_out *19:13 27.1473 
2 *19:13 *516:A 23 
*END

*D_NET *20 0.00324813
*CONN
*P pad_gpio_ana_en O
*I *530:X O *D sky130_fd_sc_hd__buf_12
*CAP
1 pad_gpio_ana_en 0.000670818
2 *530:X 0.000442392
3 *20:8 0.00111321
4 pad_gpio_ana_en pad_gpio_dm[0] 0
5 pad_gpio_ana_en pad_gpio_dm[1] 0
6 pad_gpio_ana_en *421:B 0.000157886
7 pad_gpio_ana_en *35:10 0
8 pad_gpio_ana_en *134:20 0.000365912
9 *20:8 *530:A 0.000135037
10 *20:8 *120:8 0.000362874
*RES
1 *530:X *20:8 47.1971 
2 *20:8 pad_gpio_ana_en 18.6813 
*END

*D_NET *21 0.00150089
*CONN
*P pad_gpio_ana_pol O
*I *531:X O *D sky130_fd_sc_hd__buf_12
*CAP
1 pad_gpio_ana_pol 3.0422e-05
2 *531:X 0.000503027
3 *21:15 3.0422e-05
4 *21:10 0.000503027
5 *21:10 *33:8 0
6 *21:10 *74:10 3.07986e-05
7 *21:10 *110:18 9.41704e-05
8 *21:10 *115:38 0.000141165
9 *21:10 *134:18 1.30878e-05
10 *21:10 *146:68 0.000134487
11 *21:10 *146:79 2.02872e-05
12 *21:15 pad_gpio_inenb 0
13 *21:15 *33:15 0
*RES
1 *531:X *21:10 47.5182 
2 *21:10 pad_gpio_ana_pol 8 
3 pad_gpio_ana_pol *21:15 0.0709333 
*END

*D_NET *22 0.00177755
*CONN
*P pad_gpio_ana_sel O
*I *532:X O *D sky130_fd_sc_hd__buf_12
*CAP
1 pad_gpio_ana_sel 0.000437818
2 *532:X 0.000291422
3 *22:10 0.00072924
4 pad_gpio_ana_sel pad_gpio_inenb 0
5 pad_gpio_ana_sel pad_gpio_slew_ctl[1] 0
6 *22:10 *78:10 5.41288e-05
7 *22:10 *128:10 0.000141879
8 *22:10 *152:10 2.31113e-05
9 *22:10 *182:30 9.99487e-05
*RES
1 *532:X *22:10 43.7896 
2 *22:10 pad_gpio_ana_sel 9.1872 
*END

*D_NET *23 0.00171637
*CONN
*P pad_gpio_dm[0] O
*I *533:X O *D sky130_fd_sc_hd__buf_12
*CAP
1 pad_gpio_dm[0] 0.000501534
2 *533:X 0.000233449
3 *23:10 0.000734983
4 pad_gpio_dm[0] *33:15 0
5 *23:10 *65:8 6.02684e-06
6 *23:10 *123:26 9.62666e-05
7 *23:10 *123:38 0
8 *23:10 *129:10 0.00014411
9 pad_gpio_ana_en pad_gpio_dm[0] 0
*RES
1 *533:X *23:10 42.8368 
2 *23:10 pad_gpio_dm[0] 9.35893 
*END

*D_NET *24 0.00505723
*CONN
*P pad_gpio_dm[1] O
*I *534:X O *D sky130_fd_sc_hd__buf_12
*CAP
1 pad_gpio_dm[1] 0.00186627
2 *534:X 0.000454973
3 *24:10 0.00232124
4 pad_gpio_dm[1] *35:15 0
5 pad_gpio_dm[1] *116:24 7.87537e-05
6 *24:10 *534:A 9.10096e-05
7 *24:10 *66:12 0.00017708
8 *24:10 *175:12 6.79006e-05
9 *24:10 *197:10 0
10 pad_gpio_ana_en pad_gpio_dm[1] 0
*RES
1 *534:X *24:10 46.2961 
2 *24:10 pad_gpio_dm[1] 11.7632 
*END

*D_NET *25 0.00165953
*CONN
*P pad_gpio_dm[2] O
*I *535:X O *D sky130_fd_sc_hd__buf_12
*CAP
1 pad_gpio_dm[2] 3.0422e-05
2 *535:X 0.000604718
3 *25:15 3.0422e-05
4 *25:10 0.000604718
5 *25:10 *397:A_N 0.000140099
6 *25:10 *43:178 9.41704e-05
7 *25:10 *69:10 0.000142097
8 *25:10 *145:30 1.28818e-05
9 *25:15 pad_gpio_holdover 0
10 *25:15 *27:15 0
*RES
1 *535:X *25:10 48.5746 
2 *25:10 pad_gpio_dm[2] 8 
3 pad_gpio_dm[2] *25:15 0.0709333 
*END

*D_NET *26 0.00155013
*CONN
*P pad_gpio_holdover O
*I *536:X O *D sky130_fd_sc_hd__buf_12
*CAP
1 pad_gpio_holdover 0.000660857
2 *536:X 0.000660857
3 pad_gpio_holdover pad_gpio_out 0
4 pad_gpio_holdover *437:A 0.000151686
5 pad_gpio_holdover *453:RESET_B 5.56203e-05
6 pad_gpio_holdover *68:8 0
7 pad_gpio_holdover *69:10 2.11066e-05
8 *25:15 pad_gpio_holdover 0
*RES
1 *536:X pad_gpio_holdover 49.5266 
*END

*D_NET *27 0.0011332
*CONN
*P pad_gpio_hys_trim O
*I *537:X O *D sky130_fd_sc_hd__buf_12
*CAP
1 pad_gpio_hys_trim 2.44528e-05
2 *537:X 0.000515493
3 *27:15 2.44528e-05
4 *27:10 0.000515493
5 *27:10 *427:A 0
6 *27:10 *114:28 5.3304e-05
7 *27:10 *147:40 0
8 *27:15 pad_gpio_slew_ctl[1] 0
9 *25:15 *27:15 0
*RES
1 *537:X *27:10 46.8761 
2 *27:10 pad_gpio_hys_trim 8 
3 pad_gpio_hys_trim *27:15 0.0709333 
*END

*D_NET *28 0.0036047
*CONN
*P pad_gpio_ib_mode_sel O
*I *538:X O *D sky130_fd_sc_hd__buf_12
*CAP
1 pad_gpio_ib_mode_sel 0.000118818
2 *538:X 0.000717378
3 *28:19 1.84836e-05
4 *28:10 0.000817712
5 pad_gpio_ib_mode_sel *147:101 0
6 *28:10 *538:A 9.41704e-05
7 *28:10 *540:A 0.000261956
8 *28:10 *32:6 0
9 *28:10 *62:14 0.000365487
10 *28:10 *147:101 6.64565e-05
11 *28:10 *147:103 2.93747e-05
12 *28:10 *147:117 0.000506112
13 *28:10 *147:157 1.09903e-05
14 *28:19 pad_gpio_vtrip_sel 0
15 *28:19 *32:15 0
16 *2:23 *28:10 0.00059776
17 *7:11 pad_gpio_ib_mode_sel 0
*RES
1 *538:X *28:10 40.4621 
2 *28:10 pad_gpio_ib_mode_sel 24.7296 
3 pad_gpio_ib_mode_sel *28:19 0.0709333 
*END

*D_NET *29 0.000748333
*CONN
*P pad_gpio_in I
*I *517:A I *D sky130_fd_sc_hd__buf_1
*CAP
1 pad_gpio_in 0.000374166
2 *517:A 0.000374166
3 *517:A *35:15 0
*RES
1 pad_gpio_in *517:A 49.0201 
*END

*D_NET *30 0.00179628
*CONN
*P pad_gpio_inenb O
*I *539:X O *D sky130_fd_sc_hd__buf_12
*CAP
1 pad_gpio_inenb 0.000284001
2 *539:X 0.00036896
3 *30:8 0.000652961
4 *30:8 *115:38 8.59219e-05
5 *30:8 *134:20 4.22083e-05
6 *30:8 *146:79 0.00036223
7 pad_gpio_ana_sel pad_gpio_inenb 0
8 *21:15 pad_gpio_inenb 0
*RES
1 *539:X *30:8 45.0118 
2 *30:8 pad_gpio_inenb 8.75787 
*END

*D_NET *31 0.00307144
*CONN
*P pad_gpio_out O
*I *540:X O *D sky130_fd_sc_hd__buf_12
*CAP
1 pad_gpio_out 0.000372758
2 *540:X 0.000382499
3 *31:10 0.000755257
4 pad_gpio_out pad_gpio_vtrip_sel 0
5 *31:10 pad_gpio_vtrip_sel 1.78655e-05
6 *31:10 *419:B 0.000226996
7 *31:10 *36:14 0.000247074
8 *31:10 *58:10 0.000138103
9 *31:10 *59:8 0.000110922
10 *31:10 *147:117 0.000221997
11 *31:10 *182:30 0.000212665
12 pad_gpio_holdover pad_gpio_out 0
13 *5:17 *31:10 0.000385303
*RES
1 *540:X *31:10 49.6518 
2 *31:10 pad_gpio_out 9.01547 
*END

*D_NET *32 0.00380362
*CONN
*P pad_gpio_outenb O
*I *541:X O *D sky130_fd_sc_hd__buf_12
*CAP
1 pad_gpio_outenb 4.44159e-05
2 *541:X 0.00119653
3 *32:15 1.84836e-05
4 *32:6 0.00122246
5 *32:6 *419:B 5.52998e-05
6 *32:6 *526:A 0.000262705
7 *32:6 *36:14 0.000153176
8 *32:6 *147:157 2.02872e-05
9 *503:A *32:6 4.96795e-05
10 *13:15 *32:6 0.000175635
11 *14:15 *32:6 0.000604954
12 *28:10 *32:6 0
13 *28:19 *32:15 0
*RES
1 *541:X *32:6 44.1079 
2 *32:6 pad_gpio_outenb 23.3211 
3 pad_gpio_outenb *32:15 0.0709333 
*END

*D_NET *33 0.0016836
*CONN
*P pad_gpio_slew_ctl[0] O
*I *542:X O *D sky130_fd_sc_hd__buf_12
*CAP
1 pad_gpio_slew_ctl[0] 8.89054e-05
2 *542:X 0.000719379
3 *33:15 2.44528e-05
4 *33:8 0.000783831
5 *33:8 *539:A 6.70361e-05
6 pad_gpio_dm[0] *33:15 0
7 *21:10 *33:8 0
8 *21:15 *33:15 0
*RES
1 *542:X *33:8 49.5793 
2 *33:8 pad_gpio_slew_ctl[0] 9.02536 
3 pad_gpio_slew_ctl[0] *33:15 0.0709333 
*END

*D_NET *34 0.00254247
*CONN
*P pad_gpio_slew_ctl[1] O
*I *479:LO O *D sky130_fd_sc_hd__conb_1
*CAP
1 pad_gpio_slew_ctl[1] 0.000930385
2 *479:LO 0.000306823
3 *34:12 0.00123721
4 *34:12 *114:28 3.7122e-06
5 *34:12 *137:14 3.78847e-05
6 *34:12 *196:14 2.64616e-05
7 pad_gpio_ana_sel pad_gpio_slew_ctl[1] 0
8 *27:15 pad_gpio_slew_ctl[1] 0
*RES
1 *479:LO *34:12 49.3246 
2 *34:12 pad_gpio_slew_ctl[1] 2.30347 
*END

*D_NET *35 0.00440536
*CONN
*P pad_gpio_slow_sel O
*I *543:X O *D sky130_fd_sc_hd__buf_12
*CAP
1 pad_gpio_slow_sel 1.84836e-05
2 *543:X 0
3 *35:15 1.84836e-05
4 *35:10 0.00117691
5 *35:4 0.00117691
6 *35:10 *408:A_N 0.000261073
7 *35:10 *408:B 2.81537e-05
8 *35:10 *421:A 0.000145154
9 *35:10 *421:B 4.72245e-05
10 *35:10 *57:10 6.80324e-05
11 *35:10 *66:6 0.000436649
12 *35:10 *140:20 0.000261862
13 *35:10 *185:8 0.000766422
14 pad_gpio_ana_en *35:10 0
15 pad_gpio_dm[1] *35:15 0
16 *517:A *35:15 0
*RES
1 *543:X *35:4 23 
2 *35:4 *35:10 43.3268 
3 *35:10 pad_gpio_slow_sel 8 
4 pad_gpio_slow_sel *35:15 0.0709333 
*END

*D_NET *36 0.00318575
*CONN
*P pad_gpio_vtrip_sel O
*I *544:X O *D sky130_fd_sc_hd__buf_12
*CAP
1 pad_gpio_vtrip_sel 0.000447412
2 *544:X 0.000576624
3 *36:14 0.00102404
4 pad_gpio_vtrip_sel *453:RESET_B 0.000115654
5 pad_gpio_vtrip_sel *117:14 3.68214e-05
6 pad_gpio_vtrip_sel *182:30 0.000146087
7 *36:14 *419:B 4.28997e-05
8 *36:14 *453:RESET_B 7.87505e-05
9 *36:14 *58:10 9.89529e-06
10 *36:14 *147:157 0.000165488
11 *36:14 *182:30 0
12 pad_gpio_out pad_gpio_vtrip_sel 0
13 *4:11 *36:14 0.000123967
14 *28:19 pad_gpio_vtrip_sel 0
15 *31:10 pad_gpio_vtrip_sel 1.78655e-05
16 *31:10 *36:14 0.000247074
17 *32:6 *36:14 0.000153176
*RES
1 *544:X *36:14 48.9061 
2 *36:14 pad_gpio_vtrip_sel 10.7408 
*END

*D_NET *37 0.00725869
*CONN
*P resetn I
*I *200:A I *D sky130_fd_sc_hd__clkbuf_8
*I *478:A I *D sky130_fd_sc_hd__clkbuf_2
*CAP
1 resetn 0.0011325
2 *200:A 0
3 *478:A 0
4 *37:30 0.00123738
5 *37:17 0.00236988
6 *37:17 *39:9 0.00016871
7 *37:17 *43:11 0
8 *37:17 *116:18 0
9 *37:17 *116:24 4.24915e-05
10 *37:17 *143:12 0.000388614
11 *37:30 *410:A_N 0.000210337
12 *37:30 *455:D 1.94418e-05
13 *37:30 *43:26 0.000123748
14 *37:30 *112:28 9.51908e-05
15 *37:30 *116:18 0
16 *37:30 *143:12 0.000569038
17 *37:30 *148:8 0.000116449
18 *37:30 *149:29 0.000396814
19 *37:30 *149:35 1.16773e-05
20 *37:30 *159:24 0.000228744
21 *37:30 *178:10 0.000147672
*RES
1 resetn *37:17 39.1679 
2 *37:17 *478:A 38 
3 *37:17 *37:30 43.9379 
4 *37:30 *200:A 23 
*END

*D_NET *38 0.00056343
*CONN
*P resetn_out O
*I *200:X O *D sky130_fd_sc_hd__clkbuf_8
*CAP
1 resetn_out 0.000281715
2 *200:X 0.000281715
3 resetn_out serial_clock_out 0
4 resetn_out user_gpio_in 0
5 resetn_out *44:10 0
*RES
1 *200:X resetn_out 49.5673 
*END

*D_NET *39 0.0272503
*CONN
*P serial_clock I
*I *454:CLK I *D sky130_fd_sc_hd__dfrtp_1
*I *462:CLK I *D sky130_fd_sc_hd__dfrtp_1
*I *460:CLK I *D sky130_fd_sc_hd__dfrtp_1
*I *467:CLK I *D sky130_fd_sc_hd__dfrtp_1
*I *468:CLK I *D sky130_fd_sc_hd__dfrtp_1
*I *458:CLK I *D sky130_fd_sc_hd__dfrtp_1
*I *457:CLK I *D sky130_fd_sc_hd__dfrtp_1
*I *201:A I *D sky130_fd_sc_hd__clkbuf_8
*I *456:CLK I *D sky130_fd_sc_hd__dfrtp_1
*I *455:CLK I *D sky130_fd_sc_hd__dfrtp_1
*I *396:A I *D sky130_fd_sc_hd__inv_2
*I *469:CLK I *D sky130_fd_sc_hd__dfrtp_1
*I *459:CLK I *D sky130_fd_sc_hd__dfrtp_1
*I *461:CLK I *D sky130_fd_sc_hd__dfrtp_1
*I *466:CLK I *D sky130_fd_sc_hd__dfrtp_1
*I *464:CLK I *D sky130_fd_sc_hd__dfrtp_1
*I *463:CLK I *D sky130_fd_sc_hd__dfrtp_1
*I *465:CLK I *D sky130_fd_sc_hd__dfrtp_1
*CAP
1 serial_clock 0.000459417
2 *454:CLK 0.000227017
3 *462:CLK 4.55997e-05
4 *460:CLK 0.00037164
5 *467:CLK 0.000357129
6 *468:CLK 0
7 *458:CLK 0.000237124
8 *457:CLK 0
9 *201:A 6.54255e-05
10 *456:CLK 0.0001059
11 *455:CLK 0.000264413
12 *396:A 2.96516e-05
13 *469:CLK 0
14 *459:CLK 0
15 *461:CLK 0
16 *466:CLK 0
17 *464:CLK 9.46691e-05
18 *463:CLK 0
19 *465:CLK 0
20 *39:196 0.000230675
21 *39:190 0.000624531
22 *39:174 0.00039243
23 *39:166 0.00106146
24 *39:151 0.000577247
25 *39:140 0.000381458
26 *39:125 0.00132911
27 *39:114 0.00111149
28 *39:105 0.000604556
29 *39:97 0.000731264
30 *39:86 0.000674631
31 *39:73 0.000793466
32 *39:69 0.00154717
33 *39:53 0.000694395
34 *39:41 0.000623555
35 *39:34 0.000201928
36 *39:27 0.000431319
37 *39:21 0.00120979
38 *39:15 0.0013543
39 *39:13 0.000944037
40 *39:9 0.00158487
41 *201:A *43:38 5.12254e-05
42 *396:A *159:24 9.95589e-06
43 *454:CLK *41:13 0
44 *454:CLK *43:11 0.000402295
45 *455:CLK *455:D 9.28193e-05
46 *456:CLK *199:A 2.02872e-05
47 *456:CLK *43:32 2.64616e-05
48 *458:CLK *94:16 1.87432e-05
49 *458:CLK *163:18 0
50 *464:CLK *464:D 2.93845e-05
51 *464:CLK *123:26 9.62666e-05
52 *467:CLK *402:A_N 7.32993e-05
53 *467:CLK *467:D 7.15126e-05
54 *467:CLK *134:10 2.18409e-05
55 *467:CLK *150:22 0.000284904
56 *467:CLK *155:12 0.000202321
57 *467:CLK *187:10 5.53064e-05
58 *39:9 *43:11 0.000208735
59 *39:9 *116:18 0
60 *39:21 *120:27 0
61 *39:21 *198:10 5.70419e-05
62 *39:27 *43:100 0.00045477
63 *39:27 *168:18 3.70396e-05
64 *39:34 *428:A 7.42621e-05
65 *39:34 *463:RESET_B 2.33744e-05
66 *39:34 *43:100 0.000115
67 *39:34 *144:36 0.00010534
68 *39:41 *428:A 5.41288e-05
69 *39:41 *144:36 3.53115e-05
70 *39:53 *464:D 2.63467e-05
71 *39:53 *43:90 0
72 *39:53 *116:24 0
73 *39:53 *149:106 3.58803e-05
74 *39:53 *197:10 0
75 *39:86 *460:D 0.000217118
76 *39:86 *43:76 0.000103009
77 *39:86 *43:82 8.16253e-05
78 *39:86 *123:20 4.33221e-05