*SPEF "ieee 1481-1999"
*DESIGN "gpio_control_block"
*DATE "18:36:29 Monday June 16, 2025"
*VENDOR "The OpenROAD Project"
*PROGRAM "OpenROAD"
*VERSION "edf00dff99f6c40d67a30c0e22a8191c5d2ed9d6"
*DESIGN_FLOW "NAME_SCOPE LOCAL" "PIN_CAP NONE"
*DIVIDER /
*DELIMITER :
*BUS_DELIMITER []
*T_UNIT 1 NS
*C_UNIT 1 PF
*R_UNIT 1 OHM
*L_UNIT 1 HENRY

*NAME_MAP
*1 gpio_defaults[0]
*2 gpio_defaults[10]
*3 gpio_defaults[11]
*4 gpio_defaults[12]
*5 gpio_defaults[13]
*6 gpio_defaults[14]
*7 gpio_defaults[15]
*8 gpio_defaults[1]
*9 gpio_defaults[2]
*10 gpio_defaults[3]
*11 gpio_defaults[4]
*12 gpio_defaults[5]
*13 gpio_defaults[6]
*14 gpio_defaults[7]
*15 gpio_defaults[8]
*16 gpio_defaults[9]
*17 mgmt_gpio_in
*18 mgmt_gpio_oeb
*19 mgmt_gpio_out
*20 pad_gpio_ana_en
*21 pad_gpio_ana_pol
*22 pad_gpio_ana_sel
*23 pad_gpio_dm[0]
*24 pad_gpio_dm[1]
*25 pad_gpio_dm[2]
*26 pad_gpio_holdover
*27 pad_gpio_hys_trim
*28 pad_gpio_ib_mode_sel
*29 pad_gpio_in
*30 pad_gpio_inenb
*31 pad_gpio_out
*32 pad_gpio_outenb
*33 pad_gpio_slew_ctl[0]
*34 net44
*35 pad_gpio_slow_sel
*36 pad_gpio_vtrip_sel
*37 resetn
*38 resetn_out
*39 serial_clock
*40 serial_clock_out
*41 serial_data_in
*42 serial_data_out
*43 serial_load
*44 serial_load_out
*45 user_gpio_in
*46 user_gpio_oeb
*47 user_gpio_out
*52 _000_
*53 _001_
*54 _002_
*55 _003_
*56 _004_
*57 _005_
*58 _006_
*59 _007_
*60 _008_
*61 _009_
*62 _010_
*63 _011_
*64 _012_
*65 _013_
*66 _014_
*67 _015_
*68 _016_
*69 _017_
*70 _018_
*71 _019_
*72 _020_
*73 _021_
*74 _022_
*75 _023_
*76 _024_
*77 _025_
*78 _026_
*79 _027_
*80 _028_
*81 _029_
*82 _030_
*83 _031_
*84 _032_
*85 _033_
*86 _034_
*87 _035_
*88 _036_
*89 _037_
*90 _038_
*91 _039_
*92 _040_
*93 _041_
*94 _042_
*95 _043_
*96 _044_
*97 _045_
*98 _046_
*99 _047_
*100 _048_
*101 _049_
*102 _050_
*103 _051_
*104 _052_
*105 _053_
*106 _054_
*107 _055_
*108 _056_
*109 gpio_logic1
*110 gpio_slew_ctl
*111 mgmt_ena
*112 net1
*113 net10
*114 net11
*115 net12
*116 net13
*117 net14
*118 net15
*119 net16
*120 net17
*121 net18
*122 net19
*123 net2
*124 net20
*125 net21
*126 net22
*127 net23
*128 net24
*129 net25
*130 net26
*131 net27
*132 net28
*133 net29
*134 net3
*135 net30
*136 net31
*137 net32
*138 net33
*139 net34
*140 net35
*141 net36
*142 net37
*143 net38
*144 net39
*145 net4
*146 net40
*147 net41
*148 net42
*149 net43
*150 net45
*151 net46
*152 net47
*153 net48
*154 net49
*155 net5
*156 net50
*157 net51
*158 net52
*159 net53
*160 net54
*161 net55
*162 net56
*163 net57
*164 net58
*165 net59
*166 net6
*167 net60
*168 net61
*169 net62
*170 net63
*171 net64
*172 net65
*173 net66
*174 net67
*175 net68
*176 net69
*177 net7
*178 net70
*179 net71
*180 net72
*181 net8
*182 net9
*183 shift_register\[0\]
*184 shift_register\[10\]
*185 shift_register\[11\]
*186 shift_register\[12\]
*187 shift_register\[13\]
*188 shift_register\[14\]
*189 shift_register\[15\]
*190 shift_register\[1\]
*191 shift_register\[2\]
*192 shift_register\[3\]
*193 shift_register\[4\]
*194 shift_register\[5\]
*195 shift_register\[6\]
*196 shift_register\[7\]
*197 shift_register\[8\]
*198 shift_register\[9\]
*199 BUF\[0\]
*200 BUF\[1\]
*201 BUF\[2\]
*202 FILLER_0_23
*203 FILLER_0_26
*204 FILLER_0_29
*205 FILLER_0_32
*206 FILLER_0_35
*207 FILLER_0_38
*208 FILLER_0_41
*209 FILLER_0_44
*210 FILLER_0_47
*211 FILLER_0_49
*212 FILLER_0_52
*213 FILLER_0_55
*214 FILLER_0_58
*215 FILLER_0_77
*216 FILLER_0_80
*217 FILLER_0_83
*218 FILLER_0_86
*219 FILLER_10_12
*220 FILLER_10_15
*221 FILLER_10_18
*222 FILLER_10_21
*223 FILLER_10_24
*224 FILLER_10_27
*225 FILLER_10_29
*226 FILLER_10_3
*227 FILLER_10_32
*228 FILLER_10_35
*229 FILLER_10_38
*230 FILLER_10_6
*231 FILLER_10_70
*232 FILLER_10_80
*233 FILLER_10_83
*234 FILLER_10_9
*235 FILLER_10_90
*236 FILLER_11_12
*237 FILLER_11_15
*238 FILLER_11_25
*239 FILLER_11_48
*240 FILLER_11_9
*241 FILLER_11_91
*242 FILLER_12_22
*243 FILLER_12_25
*244 FILLER_12_29
*245 FILLER_12_3
*246 FILLER_12_32
*247 FILLER_12_35
*248 FILLER_12_45
*249 FILLER_12_48
*250 FILLER_12_51
*251 FILLER_12_67
*252 FILLER_12_90
*253 FILLER_13_3
*254 FILLER_13_40
*255 FILLER_13_43
*256 FILLER_13_46
*257 FILLER_13_49
*258 FILLER_13_52
*259 FILLER_13_55
*260 FILLER_13_57
*261 FILLER_13_74
*262 FILLER_14_19
*263 FILLER_14_32
*264 FILLER_14_43
*265 FILLER_14_46
*266 FILLER_14_72
*267 FILLER_14_90
*268 FILLER_15_23
*269 FILLER_15_57
*270 FILLER_15_90
*271 FILLER_16_18
*272 FILLER_16_49
*273 FILLER_16_90
*274 FILLER_17_55
*275 FILLER_17_57
*276 FILLER_18_14
*277 FILLER_18_29
*278 FILLER_18_58
*279 FILLER_18_90
*280 FILLER_19_43
*281 FILLER_19_90
*282 FILLER_1_23
*283 FILLER_1_26
*284 FILLER_1_29
*285 FILLER_1_66
*286 FILLER_1_75
*287 FILLER_1_77
*288 FILLER_1_80
*289 FILLER_1_83
*290 FILLER_1_86
*291 FILLER_20_29
*292 FILLER_20_3
*293 FILLER_20_83
*294 FILLER_20_90
*295 FILLER_21_19
*296 FILLER_21_62
*297 FILLER_22_29
*298 FILLER_22_3
*299 FILLER_22_90
*300 FILLER_23_3
*301 FILLER_23_90
*302 FILLER_2_28
*303 FILLER_2_31
*304 FILLER_2_34
*305 FILLER_2_37
*306 FILLER_2_40
*307 FILLER_2_43
*308 FILLER_2_57
*309 FILLER_2_91
*310 FILLER_3_23
*311 FILLER_3_26
*312 FILLER_3_29
*313 FILLER_3_90
*314 FILLER_4_12
*315 FILLER_4_15
*316 FILLER_4_18
*317 FILLER_4_21
*318 FILLER_4_24
*319 FILLER_4_27
*320 FILLER_4_29
*321 FILLER_4_3
*322 FILLER_4_32
*323 FILLER_4_35
*324 FILLER_4_6
*325 FILLER_4_80
*326 FILLER_4_83
*327 FILLER_4_9
*328 FILLER_4_90
*329 FILLER_5_12
*330 FILLER_5_15
*331 FILLER_5_18
*332 FILLER_5_21
*333 FILLER_5_24
*334 FILLER_5_27
*335 FILLER_5_30
*336 FILLER_5_33
*337 FILLER_5_54
*338 FILLER_5_57
*339 FILLER_5_6
*340 FILLER_5_63
*341 FILLER_5_9
*342 FILLER_6_10
*343 FILLER_6_17
*344 FILLER_6_20
*345 FILLER_6_23
*346 FILLER_6_26
*347 FILLER_6_29
*348 FILLER_6_3
*349 FILLER_6_32
*350 FILLER_6_35
*351 FILLER_6_66
*352 FILLER_6_90
*353 FILLER_7_23
*354 FILLER_7_26
*355 FILLER_7_29
*356 FILLER_7_32
*357 FILLER_7_35
*358 FILLER_7_38
*359 FILLER_7_41
*360 FILLER_7_44
*361 FILLER_7_47
*362 FILLER_7_57
*363 FILLER_8_19
*364 FILLER_8_22
*365 FILLER_8_25
*366 FILLER_8_29
*367 FILLER_8_32
*368 FILLER_8_35
*369 FILLER_8_38
*370 FILLER_8_41
*371 FILLER_8_44
*372 FILLER_8_90
*373 FILLER_9_12
*374 FILLER_9_15
*375 FILLER_9_18
*376 FILLER_9_21
*377 FILLER_9_24
*378 FILLER_9_27
*379 FILLER_9_30
*380 FILLER_9_33
*381 FILLER_9_55
*382 FILLER_9_57
*383 FILLER_9_6
*384 FILLER_9_9
*385 PHY_EDGE_ROW_0_2_Left_3
*386 PHY_EDGE_ROW_0_2_Right_27
*387 PHY_EDGE_ROW_10_Left_34
*388 PHY_EDGE_ROW_10_Right_13
*389 PHY_EDGE_ROW_11_Left_35
*390 PHY_EDGE_ROW_11_Right_14
*391 PHY_EDGE_ROW_12_Left_36
*392 PHY_EDGE_ROW_12_Right_15
*393 PHY_EDGE_ROW_13_Left_37
*394 PHY_EDGE_ROW_13_Right_16
*395 PHY_EDGE_ROW_14_Left_38
*396 PHY_EDGE_ROW_14_Right_17
*397 PHY_EDGE_ROW_15_Left_39
*398 PHY_EDGE_ROW_15_Right_18
*399 PHY_EDGE_ROW_16_Left_40
*400 PHY_EDGE_ROW_16_Right_19
*401 PHY_EDGE_ROW_17_Left_41
*402 PHY_EDGE_ROW_17_Right_20
*403 PHY_EDGE_ROW_18_Left_42
*404 PHY_EDGE_ROW_18_Right_21
*405 PHY_EDGE_ROW_19_Left_43
*406 PHY_EDGE_ROW_19_Right_22
*407 PHY_EDGE_ROW_1_2_Left_0
*408 PHY_EDGE_ROW_1_2_Right_4
*409 PHY_EDGE_ROW_20_Left_44
*410 PHY_EDGE_ROW_20_Right_23
*411 PHY_EDGE_ROW_21_Left_45
*412 PHY_EDGE_ROW_21_Right_24
*413 PHY_EDGE_ROW_22_Left_46
*414 PHY_EDGE_ROW_22_Right_25
*415 PHY_EDGE_ROW_23_Left_47
*416 PHY_EDGE_ROW_23_Right_26
*417 PHY_EDGE_ROW_2_2_Left_1
*418 PHY_EDGE_ROW_2_2_Right_5
*419 PHY_EDGE_ROW_3_2_Left_2
*420 PHY_EDGE_ROW_3_2_Right_6
*421 PHY_EDGE_ROW_4_Left_28
*422 PHY_EDGE_ROW_4_Right_7
*423 PHY_EDGE_ROW_5_Left_29
*424 PHY_EDGE_ROW_5_Right_8
*425 PHY_EDGE_ROW_6_Left_30
*426 PHY_EDGE_ROW_6_Right_9
*427 PHY_EDGE_ROW_7_Left_31
*428 PHY_EDGE_ROW_7_Right_10
*429 PHY_EDGE_ROW_8_Left_32
*430 PHY_EDGE_ROW_8_Right_11
*431 PHY_EDGE_ROW_9_Left_33
*432 PHY_EDGE_ROW_9_Right_12
*433 TAP_TAPCELL_ROW_0_2_84
*434 TAP_TAPCELL_ROW_0_2_85
*435 TAP_TAPCELL_ROW_10_61
*436 TAP_TAPCELL_ROW_10_62
*437 TAP_TAPCELL_ROW_11_63
*438 TAP_TAPCELL_ROW_12_64
*439 TAP_TAPCELL_ROW_12_65
*440 TAP_TAPCELL_ROW_13_66
*441 TAP_TAPCELL_ROW_14_67
*442 TAP_TAPCELL_ROW_14_68
*443 TAP_TAPCELL_ROW_15_69
*444 TAP_TAPCELL_ROW_16_70
*445 TAP_TAPCELL_ROW_16_71
*446 TAP_TAPCELL_ROW_17_72
*447 TAP_TAPCELL_ROW_18_73
*448 TAP_TAPCELL_ROW_18_74
*449 TAP_TAPCELL_ROW_19_75
*450 TAP_TAPCELL_ROW_1_2_48
*451 TAP_TAPCELL_ROW_20_76
*452 TAP_TAPCELL_ROW_20_77
*453 TAP_TAPCELL_ROW_21_78
*454 TAP_TAPCELL_ROW_22_79
*455 TAP_TAPCELL_ROW_22_80
*456 TAP_TAPCELL_ROW_23_81
*457 TAP_TAPCELL_ROW_23_82
*458 TAP_TAPCELL_ROW_23_83
*459 TAP_TAPCELL_ROW_2_2_49
*460 TAP_TAPCELL_ROW_3_2_50
*461 TAP_TAPCELL_ROW_4_51
*462 TAP_TAPCELL_ROW_4_52
*463 TAP_TAPCELL_ROW_4_53
*464 TAP_TAPCELL_ROW_5_54
*465 TAP_TAPCELL_ROW_6_55
*466 TAP_TAPCELL_ROW_6_56
*467 TAP_TAPCELL_ROW_7_57
*468 TAP_TAPCELL_ROW_8_58
*469 TAP_TAPCELL_ROW_8_59
*470 TAP_TAPCELL_ROW_9_60
*471 _057_
*472 _058_
*473 _059_
*474 _060_
*475 _061_
*476 _062_
*477 _063_
*478 _064_
*479 _065_
*480 _066_
*481 _067_
*482 _068_
*483 _069_
*484 _070_
*485 _071_
*486 _072_
*487 _073_
*488 _074_
*489 _075_
*490 _076_
*491 _077_
*492 _078_
*493 _079_
*494 _080_
*495 _081_
*496 _082_
*497 _083_
*498 _084_
*499 _085_
*500 _086_
*501 _087_
*502 _088_
*503 _089_
*504 _090_
*505 _091_
*506 _092_
*507 _093_
*508 _094_
*509 _095_
*510 _096_
*511 _097_
*512 _098_
*513 _099_
*514 _100_
*515 _101_
*516 _102_
*517 _103_
*518 _104_
*519 _105_
*520 _106_
*521 _107_
*522 _108_
*523 _109_
*524 _110_
*525 _111_
*526 _112_
*527 _113_
*528 _114_
*529 _115_
*530 _116_
*531 _117_
*532 _118_
*533 _119_
*534 _120_
*535 _121_
*536 _122_
*537 _123_
*538 _124_
*539 _125_
*540 _126_
*541 _127_
*542 _128_
*543 _129_
*544 _130_
*545 _131_
*546 _132_
*547 _133_
*548 _134_
*549 _136_
*550 fanout39
*551 fanout40
*552 fanout41
*553 fanout42
*554 fanout43
*555 gpio_control_block_44
*556 gpio_logic_high
*557 hold1
*558 hold10
*559 hold11
*560 hold12
*561 hold13
*562 hold14
*563 hold15
*564 hold16
*565 hold17
*566 hold18
*567 hold19
*568 hold2
*569 hold20
*570 hold21
*571 hold22
*572 hold23
*573 hold24
*574 hold25
*575 hold26
*576 hold27
*577 hold28
*578 hold3
*579 hold4
*580 hold5
*581 hold6
*582 hold7
*583 hold8
*584 hold9
*585 input1
*586 input10
*587 input11
*588 input12
*589 input13
*590 input14
*591 input15
*592 input16
*593 input17
*594 input18
*595 input19
*596 input2
*597 input20
*598 input3
*599 input4
*600 input5
*601 input6
*602 input7
*603 input8
*604 input9
*605 output21
*606 output22
*607 output23
*608 output24
*609 output25
*610 output26
*611 output27
*612 output28
*613 output29
*614 output30
*615 output31
*616 output32
*617 output33
*618 output34
*619 output35
*620 output36
*621 output37
*622 output38

*PORTS
gpio_defaults[0] I
gpio_defaults[10] I
gpio_defaults[11] I
gpio_defaults[12] I
gpio_defaults[13] I
gpio_defaults[14] I
gpio_defaults[15] I
gpio_defaults[1] I
gpio_defaults[2] I
gpio_defaults[3] I
gpio_defaults[4] I
gpio_defaults[5] I
gpio_defaults[6] I
gpio_defaults[7] I
gpio_defaults[8] I
gpio_defaults[9] I
mgmt_gpio_in O
mgmt_gpio_oeb I
mgmt_gpio_out I
pad_gpio_ana_en O
pad_gpio_ana_pol O
pad_gpio_ana_sel O
pad_gpio_dm[0] O
pad_gpio_dm[1] O
pad_gpio_dm[2] O
pad_gpio_holdover O
pad_gpio_hys_trim O
pad_gpio_ib_mode_sel O
pad_gpio_in I
pad_gpio_inenb O
pad_gpio_out O
pad_gpio_outenb O
pad_gpio_slew_ctl[0] O
pad_gpio_slew_ctl[1] O
pad_gpio_slow_sel O
pad_gpio_vtrip_sel O
resetn I
resetn_out O
serial_clock I
serial_clock_out O
serial_data_in I
serial_data_out O
serial_load I
serial_load_out O
user_gpio_in O
user_gpio_oeb I
user_gpio_out I

*D_NET *1 0.00488663
*CONN
*P gpio_defaults[0] I
*I *580:A I *D sky130_fd_sc_hd__dlygate4sd3_1
*CAP
1 gpio_defaults[0] 0.00170067
2 *580:A 0
3 *1:13 0.00170067
4 *1:13 *559:A 4.96264e-05
5 *1:13 *2:17 0.000270824
6 *1:13 *9:11 0
7 *1:13 *14:29 1.02535e-05
8 *1:13 *154:6 0.00115458
*RES
1 gpio_defaults[0] *1:13 38.9871 
2 *1:13 *580:A 23 
*END

*D_NET *2 0.00436506
*CONN
*P gpio_defaults[10] I
*I *558:A I *D sky130_fd_sc_hd__dlygate4sd3_1
*CAP
1 gpio_defaults[10] 0.00139537
2 *558:A 0
3 *2:17 0.00139537
4 *2:17 *617:A 9.61662e-05
5 *2:17 *3:13 0
6 *2:17 *14:29 0.000207271
7 *2:17 *16:19 2.11827e-05
8 *2:17 *32:6 0.000978875
9 *1:13 *2:17 0.000270824
*RES
1 gpio_defaults[10] *2:17 37.3714 
2 *2:17 *558:A 23 
*END

*D_NET *3 0.00214305
*CONN
*P gpio_defaults[11] I
*I *560:A I *D sky130_fd_sc_hd__dlygate4sd3_1
*CAP
1 gpio_defaults[11] 0.000860366
2 *560:A 0
3 *3:13 0.000860366
4 *3:13 *602:A 0.00019093
5 *3:13 *4:11 2.57449e-05
6 *3:13 *5:21 0
7 *3:13 *32:6 5.817e-05
8 *3:13 *36:10 9.41704e-05
9 *3:13 *177:8 5.3304e-05
10 *2:17 *3:13 0
*RES
1 gpio_defaults[11] *3:13 27.6564 
2 *3:13 *560:A 23 
*END

*D_NET *4 0.00577994
*CONN
*P gpio_defaults[12] I
*I *581:A I *D sky130_fd_sc_hd__dlygate4sd3_1
*CAP
1 gpio_defaults[12] 0.00099356
2 *581:A 0
3 *4:19 0.000384462
4 *4:11 0.00137802
5 *4:11 *5:21 0
6 *4:11 *10:15 0.00100624
7 *4:11 *12:11 0.000362396
8 *4:11 *15:13 0.00116803
9 *4:19 *10:15 0
10 *4:19 *14:29 0.000306633
11 *4:19 *154:6 0.000154847
12 *3:13 *4:11 2.57449e-05
*RES
1 gpio_defaults[12] *4:11 42.5707 
2 *4:11 *4:19 36.4421 
3 *4:19 *581:A 23 
*END

*D_NET *5 0.0104515
*CONN
*P gpio_defaults[13] I
*I *600:A I *D sky130_fd_sc_hd__clkbuf_1
*CAP
1 gpio_defaults[13] 0.00103417
2 *600:A 0.000161621
3 *5:27 0.00196203
4 *5:21 0.00283458
5 *600:A *472:A 0.00034721
6 *600:A *544:CLK 4.08664e-05
7 *600:A *114:10 6.17437e-06
8 *600:A *155:10 0.000162974
9 *5:21 pad_gpio_out 0.000591393
10 *5:21 *496:A 1.41464e-05
11 *5:21 *496:B 0.000458206
12 *5:21 *526:RESET_B 3.22879e-05
13 *5:21 *7:15 0.000302117
14 *5:21 *131:10 0.000267318
15 *5:21 *133:12 0.0008315
16 *5:27 *485:B 2.03764e-06
17 *5:27 *526:SET_B 1.91218e-05
18 *5:27 *545:CLK 0.000218717
19 *5:27 *39:118 3.33082e-05
20 *5:27 *39:138 0.000166626
21 *5:27 *116:16 0.000541024
22 *5:27 *147:29 4.28642e-05
23 *5:27 *147:48 5.61255e-06
24 *5:27 *148:104 9.45774e-05
25 *5:27 *179:29 0.000280969
26 *3:13 *5:21 0
27 *4:11 *5:21 0
*RES
1 gpio_defaults[13] *5:21 42.7571 
2 *5:21 *5:27 39.2357 
3 *5:27 *600:A 42.4329 
*END

*D_NET *7 0.00651454
*CONN
*P gpio_defaults[15] I
*I *601:A I *D sky130_fd_sc_hd__clkbuf_1
*CAP
1 gpio_defaults[15] 0.00158695
2 *601:A 0
3 *7:23 0.000351631
4 *7:15 0.00193858
5 *7:15 *496:A 5.76197e-05
6 *7:15 *11:19 0.000315818
7 *7:15 *16:19 0.000670658
8 *7:15 *28:6 0.000429069
9 *7:23 *9:11 0.000254415
10 *7:23 *116:16 0.000461586
11 *7:23 *147:66 1.43151e-05
12 *7:23 *149:58 3.70187e-05
13 *7:23 *149:62 5.50106e-05
14 *7:23 *176:6 1.94693e-05
15 *7:23 *189:23 2.02872e-05
16 *5:21 *7:15 0.000302117
*RES
1 gpio_defaults[15] *7:15 41.1207 
2 *7:15 *7:23 40.0464 
3 *7:23 *601:A 23 
*END

*D_NET *9 0.00468883
*CONN
*P gpio_defaults[2] I
*I *568:A I *D sky130_fd_sc_hd__dlygate4sd3_1
*CAP
1 gpio_defaults[2] 0.00166272
2 *568:A 0
3 *9:19 0.000141453
4 *9:11 0.00180418
5 *9:11 *523:RESET_B 0.000234205
6 *9:11 *559:A 0
7 *9:11 *10:15 1.09886e-05
8 *9:11 *11:19 0
9 *9:11 *13:23 3.31514e-05
10 *9:11 *116:16 0
11 *9:11 *147:66 0.000453544
12 *9:11 *177:10 0
13 *9:19 *523:RESET_B 9.41704e-05
14 *1:13 *9:11 0
15 *7:23 *9:11 0.000254415
*RES
1 gpio_defaults[2] *9:11 39.2979 
2 *9:11 *9:19 31.9471 
3 *9:19 *568:A 23 
*END

*D_NET *10 0.003517
*CONN
*P gpio_defaults[3] I
*I *557:A I *D sky130_fd_sc_hd__dlygate4sd3_1
*CAP
1 gpio_defaults[3] 0.00099473
2 *557:A 0.000128574
3 *10:15 0.0011233
4 *557:A *495:B 2.64616e-05
5 *557:A *11:19 0.000219836
6 *10:15 *11:19 6.86023e-06
7 *4:11 *10:15 0.00100624
8 *4:19 *10:15 0
9 *9:11 *10:15 1.09886e-05
*RES
1 gpio_defaults[3] *10:15 48.2286 
2 *10:15 *557:A 40.5271 
*END

*D_NET *11 0.00526251
*CONN
*P gpio_defaults[4] I
*I *578:A I *D sky130_fd_sc_hd__dlygate4sd3_1
*CAP
1 gpio_defaults[4] 0.00195095
2 *578:A 0
3 *11:19 0.00195095
4 *11:19 *495:A 0.000151518
5 *11:19 *12:11 3.05343e-05
6 *11:19 *13:23 0
7 *11:19 *14:15 0
8 *11:19 *60:10 9.24795e-06
9 *11:19 *147:80 0.000359992
10 *11:19 *150:8 0.000137651
11 *11:19 *152:8 9.3295e-05
12 *11:19 *177:10 3.58626e-05
13 *557:A *11:19 0.000219836
14 *7:15 *11:19 0.000315818
15 *9:11 *11:19 0
16 *10:15 *11:19 6.86023e-06
*RES
1 gpio_defaults[4] *11:19 44.4971 
2 *11:19 *578:A 23 
*END

*D_NET *12 0.00593941
*CONN
*P gpio_defaults[5] I
*I *582:A I *D sky130_fd_sc_hd__dlygate4sd3_1
*CAP
1 gpio_defaults[5] 0.00199649
2 *582:A 0
3 *12:17 0.000360195
4 *12:11 0.00235669
5 *12:11 *13:23 3.8394e-05
6 *12:11 *14:15 1.01436e-05
7 *12:11 *15:13 0.000784569
8 *4:11 *12:11 0.000362396
9 *11:19 *12:11 3.05343e-05
*RES
1 gpio_defaults[5] *12:11 44.2279 
2 *12:11 *12:17 34.7229 
3 *12:17 *582:A 23 
*END

*D_NET *13 0.00423002
*CONN
*P gpio_defaults[6] I
*I *583:A I *D sky130_fd_sc_hd__dlygate4sd3_1
*CAP
1 gpio_defaults[6] 0.00174083
2 *583:A 0
3 *13:23 0.00174083
4 *13:23 *14:15 0.000201287
5 *13:23 *77:8 0.000214246
6 *13:23 *149:77 0.000166522
7 *13:23 *172:31 0
8 *13:23 *177:10 9.47629e-05
9 *9:11 *13:23 3.31514e-05
10 *11:19 *13:23 0
11 *12:11 *13:23 3.8394e-05
*RES
1 gpio_defaults[6] *13:23 38.635 
2 *13:23 *583:A 23 
*END

*D_NET *14 0.00597954
*CONN
*P gpio_defaults[7] I
*I *584:A I *D sky130_fd_sc_hd__dlygate4sd3_1
*CAP
1 gpio_defaults[7] 0.000456498
2 *584:A 0
3 *14:29 0.000984929
4 *14:15 0.00144143
5 *14:15 *15:13 0.000248416
6 *14:29 *589:A 0.000277923
7 *14:29 *617:A 9.61662e-05
8 *14:29 *32:6 0.000131319
9 *14:29 *116:8 0.000775602
10 *14:29 *154:6 0.000169948
11 *14:29 *156:10 0.000177604
12 *14:29 *159:8 5.50106e-05
13 *14:29 *162:8 0.000330627
14 *14:29 *177:8 9.84851e-05
15 *1:13 *14:29 1.02535e-05
16 *2:17 *14:29 0.000207271
17 *4:19 *14:29 0.000306633
18 *11:19 *14:15 0
19 *12:11 *14:15 1.01436e-05
20 *13:23 *14:15 0.000201287
*RES
1 gpio_defaults[7] *14:15 37.54 
2 *14:15 *14:29 40.2714 
3 *14:29 *584:A 23 
*END

*D_NET *15 0.00390642
*CONN
*P gpio_defaults[8] I
*I *559:A I *D sky130_fd_sc_hd__dlygate4sd3_1
*CAP
1 gpio_defaults[8] 0.000376096
2 *559:A 0.000287777
3 *15:13 0.000663873
4 *559:A *138:20 0.00019906
5 *559:A *147:80 1.63599e-05
6 *559:A *154:16 4.34605e-05
7 *15:13 *16:19 6.91459e-05
8 *1:13 *559:A 4.96264e-05
9 *4:11 *15:13 0.00116803
10 *9:11 *559:A 0
11 *12:11 *15:13 0.000784569
12 *14:15 *15:13 0.000248416
*RES
1 gpio_defaults[8] *15:13 45.0593 
2 *15:13 *559:A 43.075 
*END

*D_NET *16 0.00332483
*CONN
*P gpio_defaults[9] I
*I *579:A I *D sky130_fd_sc_hd__dlygate4sd3_1
*CAP
1 gpio_defaults[9] 0.000921889
2 *579:A 0
3 *16:19 0.000921889
4 *16:19 *28:6 0.0003873
5 *16:19 *137:24 0.000195114
6 *16:19 *147:80 0.000137651
7 *2:17 *16:19 2.11827e-05
8 *7:15 *16:19 0.000670658
9 *15:13 *16:19 6.91459e-05
*RES
1 gpio_defaults[9] *16:19 33.5393 
2 *16:19 *579:A 23 
*END

*D_NET *17 0.000977839
*CONN
*P mgmt_gpio_in O
*I *605:X O *D sky130_fd_sc_hd__buf_12
*CAP
1 mgmt_gpio_in 4.08584e-05
2 *605:X 0.000448061
3 *17:10 0.000488919
4 mgmt_gpio_in *19:13 0
5 mgmt_gpio_in *41:13 0
6 *17:10 *19:13 0
7 *17:10 *125:8 0
*RES
1 *605:X *17:10 46.1718 
2 *17:10 mgmt_gpio_in 8.1568 
*END

*D_NET *18 0.000959608
*CONN
*P mgmt_gpio_oeb I
*I *591:A I *D sky130_fd_sc_hd__clkbuf_1
*CAP
1 mgmt_gpio_oeb 0.000374321
2 *591:A 0.000374321
3 *591:A *597:A 0
4 *591:A *19:13 0
5 *591:A *37:34 0
6 *591:A *119:8 0.000210966
*RES
1 mgmt_gpio_oeb *591:A 49.7157 
*END

*D_NET *19 0.000592404
*CONN
*P mgmt_gpio_out I
*I *592:A I *D sky130_fd_sc_hd__clkbuf_1
*CAP
1 mgmt_gpio_out 0.000296202
2 *592:A 0
3 *19:13 0.000296202
4 mgmt_gpio_in *19:13 0
5 *591:A *19:13 0
6 *17:10 *19:13 0
*RES
1 mgmt_gpio_out *19:13 27.1473 
2 *19:13 *592:A 23 
*END

*D_NET *20 0.00375411
*CONN
*P pad_gpio_ana_en O
*I *606:X O *D sky130_fd_sc_hd__buf_12
*CAP
1 pad_gpio_ana_en 0.000869389
2 *606:X 0.000169274
3 *20:8 0.00103866
4 pad_gpio_ana_en pad_gpio_dm[0] 0
5 pad_gpio_ana_en pad_gpio_dm[1] 0
6 pad_gpio_ana_en *474:B 3.93904e-06
7 pad_gpio_ana_en *498:A 7.05596e-05
8 pad_gpio_ana_en *565:A 0.000435452
9 pad_gpio_ana_en *126:16 0.000100771
10 pad_gpio_ana_en *134:30 4.4114e-05
11 pad_gpio_ana_en *144:42 3.68634e-05
12 pad_gpio_ana_en *144:44 0.000122787
13 *20:8 *606:A 0.000388071
14 *20:8 *134:30 0.000474229
*RES
1 *606:X *20:8 43.3857 
2 *20:8 pad_gpio_ana_en 19.3683 
*END

*D_NET *21 0.00143876
*CONN
*P pad_gpio_ana_pol O
*I *607:X O *D sky130_fd_sc_hd__buf_12
*CAP
1 pad_gpio_ana_pol 3.0422e-05
2 *607:X 0.000547224
3 *21:15 3.0422e-05
4 *21:10 0.000547224
5 *21:10 *33:8 0
6 *21:10 *74:10 3.07986e-05
7 *21:10 *110:14 0.00017897
8 *21:10 *115:38 7.36983e-05
9 *21:15 pad_gpio_inenb 0
10 *21:15 *33:15 0
*RES
1 *607:X *21:10 47.5182 
2 *21:10 pad_gpio_ana_pol 8 
3 pad_gpio_ana_pol *21:15 0.0709333 
*END

*D_NET *22 0.00178087
*CONN
*P pad_gpio_ana_sel O
*I *608:X O *D sky130_fd_sc_hd__buf_12
*CAP
1 pad_gpio_ana_sel 0.000425632
2 *608:X 0.000282187
3 *22:10 0.000707819
4 pad_gpio_ana_sel pad_gpio_inenb 0
5 pad_gpio_ana_sel pad_gpio_slew_ctl[1] 0
6 *22:10 *72:10 3.65917e-05
7 *22:10 *110:14 3.37029e-05
8 *22:10 *114:43 3.70094e-05
9 *22:10 *128:10 0.000138718
10 *22:10 *146:55 4.76999e-05
11 *22:10 *152:42 7.15126e-05
*RES
1 *608:X *22:10 43.7896 
2 *22:10 pad_gpio_ana_sel 9.1872 
*END

*D_NET *23 0.00186326
*CONN
*P pad_gpio_dm[0] O
*I *609:X O *D sky130_fd_sc_hd__buf_12
*CAP
1 pad_gpio_dm[0] 0.000499009
2 *609:X 0.000207544
3 *23:10 0.000706553
4 pad_gpio_dm[0] *33:15 0
5 *23:10 *65:8 6.02684e-06
6 *23:10 *123:22 9.17998e-05
7 *23:10 *123:34 0
8 *23:10 *126:16 0.000208216
9 *23:10 *129:10 0.00014411
10 pad_gpio_ana_en pad_gpio_dm[0] 0
*RES
1 *609:X *23:10 42.8368 
2 *23:10 pad_gpio_dm[0] 9.35893 
*END

*D_NET *24 0.00512922
*CONN
*P pad_gpio_dm[1] O
*I *610:X O *D sky130_fd_sc_hd__buf_12
*CAP
1 pad_gpio_dm[1] 0.00193758
2 *610:X 0.000490127
3 *24:10 0.0024277
4 pad_gpio_dm[1] *35:15 0
5 pad_gpio_dm[1] *116:26 0
6 *24:10 *542:RESET_B 0
7 *24:10 *610:A 9.40372e-05
8 *24:10 *197:8 0.000179769
9 pad_gpio_ana_en pad_gpio_dm[1] 0
*RES
1 *610:X *24:10 46.2961 
2 *24:10 pad_gpio_dm[1] 11.7632 
*END

*D_NET *25 0.00168226
*CONN
*P pad_gpio_dm[2] O
*I *611:X O *D sky130_fd_sc_hd__buf_12
*CAP
1 pad_gpio_dm[2] 3.0422e-05
2 *611:X 0.000609149
3 *25:15 3.0422e-05
4 *25:10 0.000609149
5 *25:10 *473:A_N 2.14462e-05
6 *25:10 *611:A 5.3304e-05
7 *25:10 *43:136 9.41704e-05
8 *25:10 *69:10 0.000139035
9 *25:10 *145:24 9.51596e-05
10 *25:15 pad_gpio_holdover 0
11 *25:15 *27:15 0
*RES
1 *611:X *25:10 48.5746 
2 *25:10 pad_gpio_dm[2] 8 
3 pad_gpio_dm[2] *25:15 0.0709333 
*END

*D_NET *26 0.0015408
*CONN
*P pad_gpio_holdover O
*I *612:X O *D sky130_fd_sc_hd__buf_12
*CAP
1 pad_gpio_holdover 0.000653301
2 *612:X 0.000653301
3 pad_gpio_holdover pad_gpio_out 0
4 pad_gpio_holdover *43:136 0.000151695
5 pad_gpio_holdover *69:10 2.11066e-05
6 pad_gpio_holdover *76:12 6.13906e-05
7 pad_gpio_holdover *117:18 0
8 *25:15 pad_gpio_holdover 0
*RES
1 *612:X pad_gpio_holdover 49.5266 
*END

*D_NET *27 0.00105025
*CONN
*P pad_gpio_hys_trim O
*I *613:X O *D sky130_fd_sc_hd__buf_12
*CAP
1 pad_gpio_hys_trim 2.44528e-05
2 *613:X 0.000485987
3 *27:15 2.44528e-05
4 *27:10 0.000485987
5 *27:10 *133:12 0
6 *27:10 *146:53 2.93747e-05
7 *27:10 *182:8 0
8 *27:15 pad_gpio_slew_ctl[1] 0
9 *25:15 *27:15 0
*RES
1 *613:X *27:10 46.8761 
2 *27:10 pad_gpio_hys_trim 8 
3 pad_gpio_hys_trim *27:15 0.0709333 
*END

*D_NET *28 0.0032397
*CONN
*P pad_gpio_ib_mode_sel O
*I *614:X O *D sky130_fd_sc_hd__buf_12
*CAP
1 pad_gpio_ib_mode_sel 0.000106672
2 *614:X 0.000794672
3 *28:15 1.84836e-05
4 *28:6 0.00088286
5 pad_gpio_ib_mode_sel *496:A 0
6 *28:6 *494:A 1.21972e-05
7 *28:6 *31:8 0.000477634
8 *28:6 *32:6 0
9 *28:6 *137:24 0.000130811
10 *28:15 pad_gpio_vtrip_sel 0
11 *28:15 *32:15 0
12 *7:15 *28:6 0.000429069
13 *16:19 *28:6 0.0003873
*RES
1 *614:X *28:6 39.82 
2 *28:6 pad_gpio_ib_mode_sel 24.3775 
3 pad_gpio_ib_mode_sel *28:15 0.0709333 
*END

*D_NET *29 0.000752496
*CONN
*P pad_gpio_in I
*I *593:A I *D sky130_fd_sc_hd__buf_1
*CAP
1 pad_gpio_in 0.000376248
2 *593:A 0.000376248
3 *593:A *35:15 0
*RES
1 pad_gpio_in *593:A 49.0201 
*END

*D_NET *30 0.00156803
*CONN
*P pad_gpio_inenb O
*I *615:X O *D sky130_fd_sc_hd__buf_12
*CAP
1 pad_gpio_inenb 0.000271538
2 *615:X 0.000434438
3 *30:8 0.000705976
4 *30:8 *502:A 0.000151126
5 *30:8 *115:38 4.95487e-06
6 pad_gpio_ana_sel pad_gpio_inenb 0
7 *21:15 pad_gpio_inenb 0
*RES
1 *615:X *30:8 45.0118 
2 *30:8 pad_gpio_inenb 8.75787 
*END

*D_NET *31 0.00297368
*CONN
*P pad_gpio_out O
*I *616:X O *D sky130_fd_sc_hd__buf_12
*CAP
1 pad_gpio_out 0.000441513
2 *616:X 0.000192128
3 *31:8 0.000633641
4 pad_gpio_out pad_gpio_vtrip_sel 0
5 pad_gpio_out *496:A 5.18291e-05
6 pad_gpio_out *147:164 0.00037119
7 *31:8 *494:A 8.56524e-05
8 *31:8 *494:B 5.50049e-05
9 *31:8 *58:10 7.36983e-05
10 pad_gpio_holdover pad_gpio_out 0
11 *5:21 pad_gpio_out 0.000591393
12 *28:6 *31:8 0.000477634
*RES
1 *616:X *31:8 43.3857 
2 *31:8 pad_gpio_out 17.9771 
*END

*D_NET *32 0.00400327
*CONN
*P pad_gpio_outenb O
*I *617:X O *D sky130_fd_sc_hd__buf_12
*CAP
1 pad_gpio_outenb 4.44159e-05
2 *617:X 0.0009796
3 *32:15 1.84836e-05
4 *32:6 0.00100553
5 *32:6 *496:A 0.000136731
6 *32:6 *602:A 0.000382231
7 *32:6 *620:A 0.000143156
8 *32:6 *36:10 0.000109252
9 *32:6 *177:8 1.54983e-05
10 *2:17 *32:6 0.000978875
11 *3:13 *32:6 5.817e-05
12 *14:29 *32:6 0.000131319
13 *28:6 *32:6 0
14 *28:15 *32:15 0
*RES
1 *617:X *32:6 44.1079 
2 *32:6 pad_gpio_outenb 23.3211 
3 pad_gpio_outenb *32:15 0.0709333 
*END

*D_NET *33 0.00167247
*CONN
*P pad_gpio_slew_ctl[0] O
*I *618:X O *D sky130_fd_sc_hd__buf_12
*CAP
1 pad_gpio_slew_ctl[0] 8.33363e-05
2 *618:X 0.000719379
3 *33:15 2.44528e-05
4 *33:8 0.000778262
5 *33:8 *136:24 6.70361e-05
6 pad_gpio_dm[0] *33:15 0
7 *21:10 *33:8 0
8 *21:15 *33:15 0
*RES
1 *618:X *33:8 49.5793 
2 *33:8 pad_gpio_slew_ctl[0] 9.02536 
3 pad_gpio_slew_ctl[0] *33:15 0.0709333 
*END

*D_NET *34 0.0026514
*CONN
*P pad_gpio_slew_ctl[1] O
*I *555:LO O *D sky130_fd_sc_hd__conb_1
*CAP
1 pad_gpio_slew_ctl[1] 0.000925529
2 *555:LO 0.000271353
3 *34:12 0.00119688
4 *34:12 *173:8 0.000257636
5 pad_gpio_ana_sel pad_gpio_slew_ctl[1] 0
6 *27:15 pad_gpio_slew_ctl[1] 0
*RES
1 *555:LO *34:12 49.3246 
2 *34:12 pad_gpio_slew_ctl[1] 2.30347 
*END

*D_NET *35 0.00460324
*CONN
*P pad_gpio_slow_sel O
*I *619:X O *D sky130_fd_sc_hd__buf_12
*CAP
1 pad_gpio_slow_sel 1.84836e-05
2 *619:X 0
3 *35:15 1.84836e-05
4 *35:10 0.00108467
5 *35:4 0.00108467
6 *35:10 *484:A_N 0.000259071
7 *35:10 *484:B 2.69947e-05
8 *35:10 *498:A 7.47103e-05
9 *35:10 *505:A 0.000262705
10 *35:10 *39:38 5.72975e-05
11 *35:10 *134:20 0.000573964
12 *35:10 *134:30 0
13 *35:10 *140:20 0.0003511
14 *35:10 *163:26 3.07986e-05
15 *35:10 *185:8 0.000760294
16 pad_gpio_dm[1] *35:15 0
17 *593:A *35:15 0
*RES
1 *619:X *35:4 23 
2 *35:4 *35:10 43.3268 
3 *35:10 pad_gpio_slow_sel 8 
4 pad_gpio_slow_sel *35:15 0.0709333 
*END

*D_NET *36 0.00286558
*CONN
*P pad_gpio_vtrip_sel O
*I *620:X O *D sky130_fd_sc_hd__buf_12
*CAP
1 pad_gpio_vtrip_sel 0.000377356
2 *620:X 0.000469117
3 *36:10 0.000846473
4 pad_gpio_vtrip_sel *117:18 5.84028e-05
5 *36:10 *620:A 9.92279e-05
6 *36:10 *58:10 3.14185e-05
7 *36:10 *62:10 0.000100733
8 *36:10 *76:12 0.000106236
9 *36:10 *141:10 0.000573197
10 pad_gpio_out pad_gpio_vtrip_sel 0
11 *3:13 *36:10 9.41704e-05
12 *28:15 pad_gpio_vtrip_sel 0
13 *32:6 *36:10 0.000109252
*RES
1 *620:X *36:10 49.5482 
2 *36:10 pad_gpio_vtrip_sel 9.10133 
*END

*D_NET *37 0.0070817
*CONN
*P resetn I
*I *200:A I *D sky130_fd_sc_hd__clkbuf_8
*I *554:A I *D sky130_fd_sc_hd__clkbuf_2
*CAP
1 resetn 0.00135944
2 *200:A 0
3 *554:A 2.95011e-05
4 *37:34 0.00138282
5 *37:21 0.00277177
6 *554:A *489:A 5.50106e-05
7 *37:21 *39:9 0.00016871
8 *37:21 *43:5 0
9 *37:21 *120:25 0
10 *37:21 *134:14 0
11 *37:21 *143:12 2.55968e-05
12 *37:34 *39:171 0.000104604
13 *37:34 *119:8 0
14 *37:34 *121:10 0
15 *37:34 *124:12 0.000110922
16 *37:34 *143:12 0
17 *37:34 *149:29 0.000204214
18 *37:34 *152:14 0.000748534
19 *37:34 *178:10 8.68081e-05
20 *37:34 *190:12 3.37652e-05
21 *591:A *37:34 0
*RES
1 resetn *37:21 40.2865 
2 *37:21 *554:A 38.6214 
3 *37:21 *37:34 42.9643 
4 *37:34 *200:A 23 
*END

*D_NET *38 0.00056343
*CONN
*P resetn_out O
*I *200:X O *D sky130_fd_sc_hd__clkbuf_8
*CAP
1 resetn_out 0.000281715
2 *200:X 0.000281715
3 resetn_out serial_clock_out 0
4 resetn_out user_gpio_in 0
5 resetn_out *44:10 0
*RES
1 *200:X resetn_out 49.5673 
*END

*D_NET *39 0.0282322
*CONN
*P serial_clock I
*I *531:CLK I *D sky130_fd_sc_hd__dfrtp_1
*I *538:CLK I *D sky130_fd_sc_hd__dfrtp_1
*I *545:CLK I *D sky130_fd_sc_hd__dfrtp_1
*I *546:CLK I *D sky130_fd_sc_hd__dfrtp_1
*I *534:CLK I *D sky130_fd_sc_hd__dfrtp_1
*I *535:CLK I *D sky130_fd_sc_hd__dfrtp_1
*I *201:A I *D sky130_fd_sc_hd__clkbuf_8
*I *533:CLK I *D sky130_fd_sc_hd__dfrtp_1
*I *532:CLK I *D sky130_fd_sc_hd__dfrtp_1
*I *544:CLK I *D sky130_fd_sc_hd__dfrtp_1
*I *472:A I *D sky130_fd_sc_hd__inv_2
*I *536:CLK I *D sky130_fd_sc_hd__dfrtp_1
*I *537:CLK I *D sky130_fd_sc_hd__dfrtp_1
*I *541:CLK I *D sky130_fd_sc_hd__dfrtp_1
*I *543:CLK I *D sky130_fd_sc_hd__dfrtp_1
*I *540:CLK I *D sky130_fd_sc_hd__dfrtp_1
*I *542:CLK I *D sky130_fd_sc_hd__dfrtp_1
*I *539:CLK I *D sky130_fd_sc_hd__dfrtp_1
*CAP
1 serial_clock 0.000526438
2 *531:CLK 0.00020831
3 *538:CLK 0
4 *545:CLK 0.000139924
5 *546:CLK 0
6 *534:CLK 0.000379658
7 *535:CLK 0.000247473
8 *201:A 4.50142e-05
9 *533:CLK 0
10 *532:CLK 0.000496004
11 *544:CLK 0.000433388
12 *472:A 0.00035861
13 *536:CLK 0
14 *537:CLK 0.000104735
15 *541:CLK 0.000410766
16 *543:CLK 5.54173e-05
17 *540:CLK 0
18 *542:CLK 0
19 *539:CLK 6.68311e-05
20 *39:193 0.000782894
21 *39:180 0.000300726
22 *39:171 0.000323706
23 *39:158 0.0015233
24 *39:146 0.00107934
25 *39:138 0.000517433
26 *39:120 0.000791998
27 *39:118 0.000455353
28 *39:107 0.00106786
29 *39:86 0.00145486
30 *39:76 0.000938103
31 *39:63 0.00107833
32 *39:45 0.000327675
33 *39:38 0.000484398
34 *39:30 0.00106386
35 *39:22 0.000846075
36 *39:13 0.00147992
37 *39:9 0.00197433
38 *472:A *486:B 0.000260702
39 *472:A *46:15 8.27026e-05
40 *472:A *94:8 2.24654e-05
41 *472:A *112:27 0.000169594
42 *472:A *114:10 2.61526e-05
43 *472:A *158:14 0.000137651
44 *472:A *187:10 2.86326e-05
45 *531:CLK *41:13 0
46 *531:CLK *121:10 7.23925e-05
47 *531:CLK *125:8 6.13129e-05
48 *532:CLK *532:D 7.2343e-05
49 *532:CLK *190:12 4.4859e-06
50 *534:CLK *89:8 0.00023381
51 *534:CLK *148:27 0.000103048