*SPEF "ieee 1481-1999"
*DESIGN "gpio_control_block_mgmt_monitor"
*DATE "21:20:44 Saturday June 14, 2025"
*VENDOR "The OpenROAD Project"
*PROGRAM "OpenROAD"
*VERSION "edf00dff99f6c40d67a30c0e22a8191c5d2ed9d6"
*DESIGN_FLOW "NAME_SCOPE LOCAL" "PIN_CAP NONE"
*DIVIDER /
*DELIMITER :
*BUS_DELIMITER []
*T_UNIT 1 NS
*C_UNIT 1 PF
*R_UNIT 1 OHM
*L_UNIT 1 HENRY

*NAME_MAP
*1 gpio_defaults[0]
*2 gpio_defaults[10]
*3 gpio_defaults[11]
*4 gpio_defaults[12]
*5 gpio_defaults[13]
*6 gpio_defaults[14]
*7 gpio_defaults[15]
*8 gpio_defaults[1]
*9 gpio_defaults[2]
*10 gpio_defaults[3]
*11 gpio_defaults[4]
*12 gpio_defaults[5]
*13 gpio_defaults[6]
*14 gpio_defaults[7]
*15 gpio_defaults[8]
*16 gpio_defaults[9]
*17 mgmt_gpio_in
*18 mgmt_gpio_oeb
*19 mgmt_gpio_out
*20 pad_gpio_ana_en
*21 pad_gpio_ana_pol
*22 pad_gpio_ana_sel
*23 pad_gpio_dm[0]
*24 pad_gpio_dm[1]
*25 pad_gpio_dm[2]
*26 pad_gpio_holdover
*27 pad_gpio_hys_trim
*28 pad_gpio_ib_mode_sel
*29 pad_gpio_in
*30 pad_gpio_inenb
*31 pad_gpio_out
*32 pad_gpio_outenb
*33 pad_gpio_slew_ctl[0]
*34 net44
*35 pad_gpio_slow_sel
*36 pad_gpio_vtrip_sel
*37 resetn
*38 resetn_out
*39 serial_clock
*40 serial_clock_out
*41 serial_data_in
*42 serial_data_out
*43 serial_load
*44 serial_load_out
*45 user_gpio_in
*46 user_gpio_oeb
*47 user_gpio_out
*52 _000_
*53 _001_
*54 _002_
*55 _003_
*56 _004_
*57 _005_
*58 _006_
*59 _007_
*60 _008_
*61 _009_
*62 _010_
*63 _011_
*64 _012_
*65 _013_
*66 _014_
*67 _015_
*68 _016_
*69 _017_
*70 _018_
*71 _019_
*72 _020_
*73 _021_
*74 _022_
*75 _023_
*76 _024_
*77 _025_
*78 _026_
*79 _027_
*80 _028_
*81 _029_
*82 _030_
*83 _031_
*84 _032_
*85 _033_
*86 _034_
*87 _035_
*88 _036_
*89 _037_
*90 _038_
*91 _039_
*92 _040_
*93 _041_
*94 _042_
*95 _043_
*96 _044_
*97 _045_
*98 _046_
*99 _047_
*100 _048_
*101 _049_
*102 _050_
*103 _051_
*104 _052_
*105 _053_
*106 _054_
*107 _055_
*108 _056_
*109 gpio_logic1
*110 gpio_slew_ctl
*111 mgmt_ena
*112 net1
*113 net10
*114 net11
*115 net12
*116 net13
*117 net14
*118 net15
*119 net16
*120 net17
*121 net18
*122 net19
*123 net2
*124 net20
*125 net21
*126 net22
*127 net23
*128 net24
*129 net25
*130 net26
*131 net27
*132 net28
*133 net29
*134 net3
*135 net30
*136 net31
*137 net32
*138 net33
*139 net34
*140 net35
*141 net36
*142 net37
*143 net38
*144 net39
*145 net4
*146 net40
*147 net41
*148 net42
*149 net43
*150 net45
*151 net46
*152 net47
*153 net48
*154 net49
*155 net5
*156 net50
*157 net51
*158 net52
*159 net53
*160 net54
*161 net55
*162 net56
*163 net57
*164 net58
*165 net59
*166 net6
*167 net60
*168 net61
*169 net62
*170 net63
*171 net64
*172 net65
*173 net66
*174 net67
*175 net68
*176 net69
*177 net7
*178 net70
*179 net71
*180 net72
*181 net8
*182 net9
*183 shift_register\[0\]
*184 shift_register\[10\]
*185 shift_register\[11\]
*186 shift_register\[12\]
*187 shift_register\[13\]
*188 shift_register\[14\]
*189 shift_register\[15\]
*190 shift_register\[1\]
*191 shift_register\[2\]
*192 shift_register\[3\]
*193 shift_register\[4\]
*194 shift_register\[5\]
*195 shift_register\[6\]
*196 shift_register\[7\]
*197 shift_register\[8\]
*198 shift_register\[9\]
*199 BUF\[0\]
*200 BUF\[1\]
*201 BUF\[2\]
*202 FILLER_0_23
*203 FILLER_0_35
*204 FILLER_0_47
*205 FILLER_0_49
*206 FILLER_0_57
*207 FILLER_0_77
*208 FILLER_10_15
*209 FILLER_10_27
*210 FILLER_10_29
*211 FILLER_10_3
*212 FILLER_10_37
*213 FILLER_10_70
*214 FILLER_10_80
*215 FILLER_10_90
*216 FILLER_11_25
*217 FILLER_11_47
*218 FILLER_11_57
*219 FILLER_11_9
*220 FILLER_12_22
*221 FILLER_12_29
*222 FILLER_12_3
*223 FILLER_12_45
*224 FILLER_12_53
*225 FILLER_12_67
*226 FILLER_12_90
*227 FILLER_13_3
*228 FILLER_13_40
*229 FILLER_13_52
*230 FILLER_13_57
*231 FILLER_13_74
*232 FILLER_14_19
*233 FILLER_14_35
*234 FILLER_14_83
*235 FILLER_14_90
*236 FILLER_15_24
*237 FILLER_15_3
*238 FILLER_15_34
*239 FILLER_15_61
*240 FILLER_15_90
*241 FILLER_16_18
*242 FILLER_16_90
*243 FILLER_17_55
*244 FILLER_17_57
*245 FILLER_18_14
*246 FILLER_18_29
*247 FILLER_18_59
*248 FILLER_18_90
*249 FILLER_19_43
*250 FILLER_19_90
*251 FILLER_1_23
*252 FILLER_1_29
*253 FILLER_1_66
*254 FILLER_1_72
*255 FILLER_1_77
*256 FILLER_1_85
*257 FILLER_20_29
*258 FILLER_20_3
*259 FILLER_20_83
*260 FILLER_20_90
*261 FILLER_21_19
*262 FILLER_21_62
*263 FILLER_22_29
*264 FILLER_22_90
*265 FILLER_23_3
*266 FILLER_23_90
*267 FILLER_2_28
*268 FILLER_2_40
*269 FILLER_2_44
*270 FILLER_2_57
*271 FILLER_2_91
*272 FILLER_3_23
*273 FILLER_3_31
*274 FILLER_3_90
*275 FILLER_4_15
*276 FILLER_4_27
*277 FILLER_4_29
*278 FILLER_4_3
*279 FILLER_4_35
*280 FILLER_4_80
*281 FILLER_4_90
*282 FILLER_5_15
*283 FILLER_5_27
*284 FILLER_5_3
*285 FILLER_5_57
*286 FILLER_5_63
*287 FILLER_6_17
*288 FILLER_6_25
*289 FILLER_6_29
*290 FILLER_6_37
*291 FILLER_6_66
*292 FILLER_6_9
*293 FILLER_6_90
*294 FILLER_7_23
*295 FILLER_7_35
*296 FILLER_7_47
*297 FILLER_7_57
*298 FILLER_8_19
*299 FILLER_8_27
*300 FILLER_8_29
*301 FILLER_8_41
*302 FILLER_8_90
*303 FILLER_9_18
*304 FILLER_9_30
*305 FILLER_9_34
*306 FILLER_9_55
*307 FILLER_9_57
*308 FILLER_9_6
*309 PHY_EDGE_ROW_0_2_Left_3
*310 PHY_EDGE_ROW_0_2_Right_27
*311 PHY_EDGE_ROW_10_Left_34
*312 PHY_EDGE_ROW_10_Right_13
*313 PHY_EDGE_ROW_11_Left_35
*314 PHY_EDGE_ROW_11_Right_14
*315 PHY_EDGE_ROW_12_Left_36
*316 PHY_EDGE_ROW_12_Right_15
*317 PHY_EDGE_ROW_13_Left_37
*318 PHY_EDGE_ROW_13_Right_16
*319 PHY_EDGE_ROW_14_Left_38
*320 PHY_EDGE_ROW_14_Right_17
*321 PHY_EDGE_ROW_15_Left_39
*322 PHY_EDGE_ROW_15_Right_18
*323 PHY_EDGE_ROW_16_Left_40
*324 PHY_EDGE_ROW_16_Right_19
*325 PHY_EDGE_ROW_17_Left_41
*326 PHY_EDGE_ROW_17_Right_20
*327 PHY_EDGE_ROW_18_Left_42
*328 PHY_EDGE_ROW_18_Right_21
*329 PHY_EDGE_ROW_19_Left_43
*330 PHY_EDGE_ROW_19_Right_22
*331 PHY_EDGE_ROW_1_2_Left_0
*332 PHY_EDGE_ROW_1_2_Right_4
*333 PHY_EDGE_ROW_20_Left_44
*334 PHY_EDGE_ROW_20_Right_23
*335 PHY_EDGE_ROW_21_Left_45
*336 PHY_EDGE_ROW_21_Right_24
*337 PHY_EDGE_ROW_22_Left_46
*338 PHY_EDGE_ROW_22_Right_25
*339 PHY_EDGE_ROW_23_Left_47
*340 PHY_EDGE_ROW_23_Right_26
*341 PHY_EDGE_ROW_2_2_Left_1
*342 PHY_EDGE_ROW_2_2_Right_5
*343 PHY_EDGE_ROW_3_2_Left_2
*344 PHY_EDGE_ROW_3_2_Right_6
*345 PHY_EDGE_ROW_4_Left_28
*346 PHY_EDGE_ROW_4_Right_7
*347 PHY_EDGE_ROW_5_Left_29
*348 PHY_EDGE_ROW_5_Right_8
*349 PHY_EDGE_ROW_6_Left_30
*350 PHY_EDGE_ROW_6_Right_9
*351 PHY_EDGE_ROW_7_Left_31
*352 PHY_EDGE_ROW_7_Right_10
*353 PHY_EDGE_ROW_8_Left_32
*354 PHY_EDGE_ROW_8_Right_11
*355 PHY_EDGE_ROW_9_Left_33
*356 PHY_EDGE_ROW_9_Right_12
*357 TAP_TAPCELL_ROW_0_2_84
*358 TAP_TAPCELL_ROW_0_2_85
*359 TAP_TAPCELL_ROW_10_61
*360 TAP_TAPCELL_ROW_10_62
*361 TAP_TAPCELL_ROW_11_63
*362 TAP_TAPCELL_ROW_12_64
*363 TAP_TAPCELL_ROW_12_65
*364 TAP_TAPCELL_ROW_13_66
*365 TAP_TAPCELL_ROW_14_67
*366 TAP_TAPCELL_ROW_14_68
*367 TAP_TAPCELL_ROW_15_69
*368 TAP_TAPCELL_ROW_16_70
*369 TAP_TAPCELL_ROW_16_71
*370 TAP_TAPCELL_ROW_17_72
*371 TAP_TAPCELL_ROW_18_73
*372 TAP_TAPCELL_ROW_18_74
*373 TAP_TAPCELL_ROW_19_75
*374 TAP_TAPCELL_ROW_1_2_48
*375 TAP_TAPCELL_ROW_20_76
*376 TAP_TAPCELL_ROW_20_77
*377 TAP_TAPCELL_ROW_21_78
*378 TAP_TAPCELL_ROW_22_79
*379 TAP_TAPCELL_ROW_22_80
*380 TAP_TAPCELL_ROW_23_81
*381 TAP_TAPCELL_ROW_23_82
*382 TAP_TAPCELL_ROW_23_83
*383 TAP_TAPCELL_ROW_2_2_49
*384 TAP_TAPCELL_ROW_3_2_50
*385 TAP_TAPCELL_ROW_4_51
*386 TAP_TAPCELL_ROW_4_52
*387 TAP_TAPCELL_ROW_4_53
*388 TAP_TAPCELL_ROW_5_54
*389 TAP_TAPCELL_ROW_6_55
*390 TAP_TAPCELL_ROW_6_56
*391 TAP_TAPCELL_ROW_7_57
*392 TAP_TAPCELL_ROW_8_58
*393 TAP_TAPCELL_ROW_8_59
*394 TAP_TAPCELL_ROW_9_60
*395 _057_
*396 _058_
*397 _059_
*398 _060_
*399 _061_
*400 _062_
*401 _063_
*402 _064_
*403 _065_
*404 _066_
*405 _067_
*406 _068_
*407 _069_
*408 _070_
*409 _071_
*410 _072_
*411 _073_
*412 _074_
*413 _075_
*414 _076_
*415 _077_
*416 _078_
*417 _079_
*418 _080_
*419 _081_
*420 _082_
*421 _083_
*422 _084_
*423 _085_
*424 _086_
*425 _087_
*426 _088_
*427 _089_
*428 _090_
*429 _091_
*430 _092_
*431 _093_
*432 _094_
*433 _095_
*434 _096_
*435 _097_
*436 _098_
*437 _099_
*438 _100_
*439 _101_
*440 _102_
*441 _103_
*442 _104_
*443 _105_
*444 _106_
*445 _107_
*446 _108_
*447 _109_
*448 _110_
*449 _111_
*450 _112_
*451 _113_
*452 _114_
*453 _115_
*454 _116_
*455 _117_
*456 _118_
*457 _119_
*458 _120_
*459 _121_
*460 _122_
*461 _123_
*462 _124_
*463 _125_
*464 _126_
*465 _127_
*466 _128_
*467 _129_
*468 _130_
*469 _131_
*470 _132_
*471 _133_
*472 _135_
*473 _136_
*474 fanout39
*475 fanout40
*476 fanout41
*477 fanout42
*478 fanout43
*479 gpio_control_block_mgmt_monitor_44
*480 gpio_logic_high
*481 hold1
*482 hold10
*483 hold11
*484 hold12
*485 hold13
*486 hold14
*487 hold15
*488 hold16
*489 hold17
*490 hold18
*491 hold19
*492 hold2
*493 hold20
*494 hold21
*495 hold22
*496 hold23
*497 hold24
*498 hold25
*499 hold26
*500 hold27
*501 hold28
*502 hold3
*503 hold4
*504 hold5
*505 hold6
*506 hold7
*507 hold8
*508 hold9
*509 input1
*510 input10
*511 input11
*512 input12
*513 input13
*514 input14
*515 input15
*516 input16
*517 input17
*518 input18
*519 input19
*520 input2
*521 input20
*522 input3
*523 input4
*524 input5
*525 input6
*526 input7
*527 input8
*528 input9
*529 output21
*530 output22
*531 output23
*532 output24
*533 output25
*534 output26
*535 output27
*536 output28
*537 output29
*538 output30
*539 output31
*540 output32
*541 output33
*542 output34
*543 output35
*544 output36
*545 output37
*546 output38

*PORTS
gpio_defaults[0] I
gpio_defaults[10] I
gpio_defaults[11] I
gpio_defaults[12] I
gpio_defaults[13] I
gpio_defaults[14] I
gpio_defaults[15] I
gpio_defaults[1] I
gpio_defaults[2] I
gpio_defaults[3] I
gpio_defaults[4] I
gpio_defaults[5] I
gpio_defaults[6] I
gpio_defaults[7] I
gpio_defaults[8] I
gpio_defaults[9] I
mgmt_gpio_in O
mgmt_gpio_oeb I
mgmt_gpio_out I
pad_gpio_ana_en O
pad_gpio_ana_pol O
pad_gpio_ana_sel O
pad_gpio_dm[0] O
pad_gpio_dm[1] O
pad_gpio_dm[2] O
pad_gpio_holdover O
pad_gpio_hys_trim O
pad_gpio_ib_mode_sel O
pad_gpio_in I
pad_gpio_inenb O
pad_gpio_out O
pad_gpio_outenb O
pad_gpio_slew_ctl[0] O
pad_gpio_slew_ctl[1] O
pad_gpio_slow_sel O
pad_gpio_vtrip_sel O
resetn I
resetn_out O
serial_clock I
serial_clock_out O
serial_data_in I
serial_data_out O
serial_load I
serial_load_out O
user_gpio_in O
user_gpio_oeb I
user_gpio_out I

*D_NET *1 0.00309828
*CONN
*P gpio_defaults[0] I
*I *504:A I *D sky130_fd_sc_hd__dlygate4sd3_1
*CAP
1 gpio_defaults[0] 0.00054049
2 *504:A 0.00054049
3 *504:A *483:A 0
4 *504:A *484:A 0.000264042
5 *504:A *492:A 0
6 *504:A *507:A 0.000132687
7 *504:A *508:A 0.0013159
8 *504:A *511:A 0.000119069
9 *504:A *512:A 9.3305e-05
10 *504:A *522:A 5.79545e-05
11 *504:A *114:18 3.43427e-05
*RES
1 gpio_defaults[0] *504:A 18.9 
*END

*D_NET *2 0.00358531
*CONN
*P gpio_defaults[10] I
*I *482:A I *D sky130_fd_sc_hd__dlygate4sd3_1
*CAP
1 gpio_defaults[10] 0.000947722
2 *482:A 0.000947722
3 *482:A pad_gpio_ib_mode_sel 0.000517675
4 *482:A *445:RESET_B 0.000198939
5 *482:A *446:RESET_B 0.000588686
6 *482:A *484:A 0
7 *482:A *503:A 2.9394e-05
8 *482:A *513:A 4.99619e-05
9 *482:A *514:A 0.000285264
10 *482:A *137:26 1.99498e-05
*RES
1 gpio_defaults[10] *482:A 21.72 
*END

*D_NET *3 0.00485212
*CONN
*P gpio_defaults[11] I
*I *484:A I *D sky130_fd_sc_hd__dlygate4sd3_1
*CAP
1 gpio_defaults[11] 0.00190077
2 *484:A 0.00190077
3 *484:A *483:A 0.000722385
4 *484:A *505:A 3.76914e-05
5 *484:A *522:A 2.64607e-05
6 *482:A *484:A 0
7 *504:A *484:A 0.000264042
*RES
1 gpio_defaults[11] *484:A 30.94 
*END

*D_NET *4 0.00567459
*CONN
*P gpio_defaults[12] I
*I *505:A I *D sky130_fd_sc_hd__dlygate4sd3_1
*CAP
1 gpio_defaults[12] 0.00218898
2 *505:A 0.00218898
3 *505:A pad_gpio_vtrip_sel 0.000123198
4 *505:A *405:B 4.79946e-05
5 *505:A *418:A 0.000639611
6 *505:A *419:B 1.16597e-05
7 *505:A *444:RESET_B 6.59891e-05
8 *505:A *445:CLK_N 7.00889e-06
9 *505:A *445:D 5.21706e-05
10 *505:A *453:CLK_N 3.96284e-05
11 *505:A *453:D 3.96284e-05
12 *505:A *513:A 4.66108e-05
13 *505:A *514:A 2.49909e-05
14 *505:A *524:A 0
15 *505:A *544:A 0.000113834
16 *505:A *147:117 4.66108e-05
17 *484:A *505:A 3.76914e-05
*RES
1 gpio_defaults[12] *505:A 34.75 
*END

*D_NET *5 0.00849484
*CONN
*P gpio_defaults[13] I
*I *524:A I *D sky130_fd_sc_hd__clkbuf_1
*CAP
1 gpio_defaults[13] 0.0020803
2 *524:A 0.0020803
3 *524:A pad_gpio_out 0.0003247
4 *524:A *397:B 0.000226081
5 *524:A *407:B 0.000191611
6 *524:A *415:A 1.56428e-05
7 *524:A *417:B 0.000134726
8 *524:A *419:B 0.000385626
9 *524:A *442:RESET_B 3.64949e-06
10 *524:A *442:SET_B 4.24795e-05
11 *524:A *446:RESET_B 7.00225e-05
12 *524:A *449:CLK_N 0.000100292
13 *524:A *449:D 0.000248544
14 *524:A *449:RESET_B 3.00381e-05
15 *524:A *449:SET_B 3.001e-05
16 *524:A *453:RESET_B 6.26575e-05
17 *524:A *459:D 2.90814e-05
18 *524:A *467:RESET_B 0
19 *524:A *468:CLK 0.000311148
20 *524:A *494:A 2.64607e-05
21 *524:A *522:A 7.79931e-05
22 *524:A *525:A 0.000114023
23 *524:A *535:A 0.000157826
24 *524:A *537:A 0.000125461
25 *524:A *39:97 2.82846e-05
26 *524:A *39:105 0.000377625
27 *524:A *39:190 3.57349e-05
28 *524:A *114:18 0.000335873
29 *524:A *134:18 0.000561449
30 *524:A *149:60 2.55201e-05
31 *524:A *182:30 0.000261686
32 *505:A *524:A 0
*RES
1 gpio_defaults[13] *524:A 48.94 
*END

*D_NET *7 0.00498806
*CONN
*P gpio_defaults[15] I
*I *525:A I *D sky130_fd_sc_hd__clkbuf_1
*CAP
1 gpio_defaults[15] 0.00173823
2 *525:A 0.00173823
3 *525:A pad_gpio_ib_mode_sel 0
4 *525:A *400:A_N 1.91597e-05
5 *525:A *407:B 4.41742e-05
6 *525:A *417:B 7.31757e-05
7 *525:A *444:D 6.33103e-05
8 *525:A *444:SET_B 7.46741e-05
9 *525:A *446:RESET_B 3.51805e-05
10 *525:A *453:SET_B 4.22701e-05
11 *525:A *537:A 0.000358869
12 *525:A *544:A 1.18187e-05
13 *525:A *147:84 0.000231291
14 *525:A *147:101 0.000323885
15 *525:A *166:8 0.000119756
16 *524:A *525:A 0.000114023
*RES
1 gpio_defaults[15] *525:A 29.625 
*END

*D_NET *9 0.00365891
*CONN
*P gpio_defaults[2] I
*I *492:A I *D sky130_fd_sc_hd__dlygate4sd3_1
*CAP
1 gpio_defaults[2] 0.00126752
2 *492:A 0.00126752
3 *492:A *444:CLK_N 0.000276562
4 *492:A *445:RESET_B 0
5 *492:A *446:D 0
6 *492:A *446:RESET_B 2.16833e-05
7 *492:A *481:A 0.000115258
8 *492:A *483:A 0.000150835
9 *492:A *506:A 1.98986e-05
10 *492:A *114:18 0
11 *492:A *177:14 0.000539626
12 *504:A *492:A 0
*RES
1 gpio_defaults[2] *492:A 22.5 
*END

*D_NET *10 0.00454235
*CONN
*P gpio_defaults[3] I
*I *481:A I *D sky130_fd_sc_hd__dlygate4sd3_1
*CAP
1 gpio_defaults[3] 0.00139302
2 *481:A 0.00139302
3 *481:A *502:A 8.39329e-05
4 *481:A *512:A 3.70758e-05
5 *481:A *514:A 0.00142958
6 *481:A *523:A 0
7 *481:A *177:14 9.04636e-05
8 *492:A *481:A 0.000115258
*RES
1 gpio_defaults[3] *481:A 27.61 
*END

*D_NET *11 0.00585844
*CONN
*P gpio_defaults[4] I
*I *502:A I *D sky130_fd_sc_hd__dlygate4sd3_1
*CAP
1 gpio_defaults[4] 0.00146154
2 *502:A 0.00146154
3 *502:A *400:A_N 8.09021e-06
4 *502:A *400:B 4.31106e-05
5 *502:A *426:B 0.000288023
6 *502:A *444:CLK_N 0
7 *502:A *446:SET_B 5.29629e-05
8 *502:A *449:D 3.31947e-05
9 *502:A *506:A 0.000550219
10 *502:A *514:A 9.10688e-05
11 *502:A *539:A 0.000783095
12 *502:A *43:169 0.000373739
13 *502:A *43:178 0.00017469
14 *502:A *137:26 0.00037988
15 *502:A *177:14 7.33553e-05
16 *502:A *189:10 0
17 *481:A *502:A 8.39329e-05
*RES
1 gpio_defaults[4] *502:A 36.55 
*END

*D_NET *12 0.00302589
*CONN
*P gpio_defaults[5] I
*I *506:A I *D sky130_fd_sc_hd__dlygate4sd3_1
*CAP
1 gpio_defaults[5] 0.00101492
2 *506:A 0.00101492
3 *506:A *446:CLK_N 1.83847e-05
4 *506:A *446:RESET_B 0.000201163
5 *506:A *446:SET_B 7.23602e-05
6 *506:A *507:A 7.19737e-05
7 *506:A *526:A 6.10952e-05
8 *506:A *148:112 9.60582e-07
9 *492:A *506:A 1.98986e-05
10 *502:A *506:A 0.000550219
*RES
1 gpio_defaults[5] *506:A 19.92 
*END

*D_NET *13 0.00215764
*CONN
*P gpio_defaults[6] I
*I *507:A I *D sky130_fd_sc_hd__dlygate4sd3_1
*CAP
1 gpio_defaults[6] 0.000569322
2 *507:A 0.000569322
3 *507:A pad_gpio_outenb 0.000162277
4 *507:A *508:A 0.000131125
5 *507:A *526:A 9.61873e-05
6 *507:A *114:18 0.000161829
7 *507:A *177:14 0.000262915
8 *504:A *507:A 0.000132687
9 *506:A *507:A 7.19737e-05
*RES
1 gpio_defaults[6] *507:A 15.81 
*END

*D_NET *14 0.00552007
*CONN
*P gpio_defaults[7] I
*I *508:A I *D sky130_fd_sc_hd__dlygate4sd3_1
*CAP
1 gpio_defaults[7] 0.00174839
2 *508:A 0.00174839
3 *508:A pad_gpio_outenb 0.000521218
4 *508:A *483:A 2.75254e-05
5 *508:A *512:A 2.75229e-05
6 *504:A *508:A 0.0013159
7 *507:A *508:A 0.000131125
*RES
1 gpio_defaults[7] *508:A 27.54 
*END

*D_NET *15 0.00207271
*CONN
*P gpio_defaults[8] I
*I *483:A I *D sky130_fd_sc_hd__dlygate4sd3_1
*CAP
1 gpio_defaults[8] 0.000552765
2 *483:A 0.000552765
3 *483:A *503:A 6.64375e-05
4 *483:A *541:A 0
5 *483:A *114:18 0
6 *484:A *483:A 0.000722385
7 *492:A *483:A 0.000150835
8 *504:A *483:A 0
9 *508:A *483:A 2.75254e-05
*RES
1 gpio_defaults[8] *483:A 19.42 
*END

*D_NET *16 0.00134912
*CONN
*P gpio_defaults[9] I
*I *503:A I *D sky130_fd_sc_hd__dlygate4sd3_1
*CAP
1 gpio_defaults[9] 0.000546554
2 *503:A 0.000546554
3 *503:A pad_gpio_outenb 4.87914e-05
4 *503:A *526:A 6.47801e-05
5 *503:A *177:14 4.66108e-05
6 *482:A *503:A 2.9394e-05
7 *483:A *503:A 6.64375e-05
*RES
1 gpio_defaults[9] *503:A 11.52 
*END

*D_NET *17 0.000857214
*CONN
*P mgmt_gpio_in O
*I *529:X O *D sky130_fd_sc_hd__buf_12
*CAP
1 mgmt_gpio_in 0.000428607
2 *529:X 0.000428607
3 mgmt_gpio_in *516:A 0
4 mgmt_gpio_in *518:A 0
5 mgmt_gpio_in *43:11 0
*RES
1 *529:X mgmt_gpio_in 10.1239 
*END

*D_NET *18 0.000837665
*CONN
*P mgmt_gpio_oeb I
*I *515:A I *D sky130_fd_sc_hd__clkbuf_1
*CAP
1 mgmt_gpio_oeb 0.000331041
2 *515:A 0.000331041
3 *515:A *412:A1 0.000175583
4 *515:A *516:A 0
5 *515:A *521:A 0
6 *515:A *116:24 0
*RES
1 mgmt_gpio_oeb *515:A 6.7483 
*END

*D_NET *19 0.000510805
*CONN
*P mgmt_gpio_out I
*I *516:A I *D sky130_fd_sc_hd__clkbuf_1
*CAP
1 mgmt_gpio_out 0.000255403
2 *516:A 0.000255403
3 *516:A *43:11 0
4 mgmt_gpio_in *516:A 0
5 *515:A *516:A 0
*RES
1 mgmt_gpio_out *516:A 7.09217 
*END

*D_NET *20 0.00262519
*CONN
*P pad_gpio_ana_en O
*I *530:X O *D sky130_fd_sc_hd__buf_12
*CAP
1 pad_gpio_ana_en 0.000867642
2 *530:X 0.000867642
3 pad_gpio_ana_en pad_gpio_dm[0] 0
4 pad_gpio_ana_en pad_gpio_dm[1] 0
5 pad_gpio_ana_en pad_gpio_slow_sel 0
6 pad_gpio_ana_en *421:B 0.000132675
7 pad_gpio_ana_en *530:A 0.000118081
8 pad_gpio_ana_en *120:10 0.000334024
9 pad_gpio_ana_en *134:20 0.00030513
*RES
1 *530:X pad_gpio_ana_en 18.472 
*END

*D_NET *21 0.00122069
*CONN
*P pad_gpio_ana_pol O
*I *531:X O *D sky130_fd_sc_hd__buf_12
*CAP
1 pad_gpio_ana_pol 0.000417734
2 *531:X 0.000393564
3 *21:15 2.41699e-05
4 pad_gpio_ana_pol pad_gpio_slew_ctl[0] 0
5 pad_gpio_ana_pol *425:B 0.000121102
6 pad_gpio_ana_pol *452:RESET_B 2.79137e-05
7 pad_gpio_ana_pol *473:A 8.23457e-05
8 pad_gpio_ana_pol *134:18 1.28131e-05
9 pad_gpio_ana_pol *146:68 0.00012189
10 pad_gpio_ana_pol *146:79 1.91597e-05
11 *21:15 pad_gpio_inenb 0
12 *21:15 *33:15 0
*RES
1 *531:X pad_gpio_ana_pol 10.9925 
2 pad_gpio_ana_pol *21:15 0.0481333 
*END

*D_NET *22 0.00150277
*CONN
*P pad_gpio_ana_sel O
*I *532:X O *D sky130_fd_sc_hd__buf_12
*CAP
1 pad_gpio_ana_sel 0.000608375
2 *532:X 0.000608375
3 pad_gpio_ana_sel pad_gpio_inenb 0
4 pad_gpio_ana_sel pad_gpio_slew_ctl[1] 0
5 pad_gpio_ana_sel *470:RESET_B 5.05437e-05
6 pad_gpio_ana_sel *528:A 2.33306e-05
7 pad_gpio_ana_sel *532:A 0.00011852
8 pad_gpio_ana_sel *182:30 9.36216e-05
*RES
1 *532:X pad_gpio_ana_sel 9.0981 
*END

*D_NET *23 0.00146805
*CONN
*P pad_gpio_dm[0] O
*I *533:X O *D sky130_fd_sc_hd__buf_12
*CAP
1 pad_gpio_dm[0] 0.000625534
2 *533:X 0.000625534
3 pad_gpio_dm[0] *420:B 0
4 pad_gpio_dm[0] *447:SET_B 6.57949e-06
5 pad_gpio_dm[0] *533:A 0.000120186
6 pad_gpio_dm[0] *33:15 0
7 pad_gpio_dm[0] *123:26 9.02174e-05
8 pad_gpio_ana_en pad_gpio_dm[0] 0
*RES
1 *533:X pad_gpio_dm[0] 8.52463 
*END

*D_NET *24 0.00420812
*CONN
*P pad_gpio_dm[1] O
*I *534:X O *D sky130_fd_sc_hd__buf_12
*CAP
1 pad_gpio_dm[1] 0.00191645
2 *534:X 0.00191645
3 pad_gpio_dm[1] *448:RESET_B 0.000148043
4 pad_gpio_dm[1] *463:D 6.36578e-05
5 pad_gpio_dm[1] *497:A 0
6 pad_gpio_dm[1] *534:A 7.9871e-05
7 pad_gpio_dm[1] *35:15 0
8 pad_gpio_dm[1] *116:24 8.36497e-05
9 pad_gpio_ana_en pad_gpio_dm[1] 0
*RES
1 *534:X pad_gpio_dm[1] 12.6611 
*END

*D_NET *25 0.0013452
*CONN
*P pad_gpio_dm[2] O
*I *535:X O *D sky130_fd_sc_hd__buf_12
*CAP
1 pad_gpio_dm[2] 0.000504722
2 *535:X 0.000480552
3 *25:15 2.41699e-05
4 pad_gpio_dm[2] *397:A_N 0.000120581
5 pad_gpio_dm[2] *397:B 1.12643e-05
6 pad_gpio_dm[2] *449:SET_B 0.000121561
7 pad_gpio_dm[2] *43:178 8.23457e-05
8 *25:15 pad_gpio_holdover 0
9 *25:15 *27:15 0
*RES
1 *535:X pad_gpio_dm[2] 11.7575 
2 pad_gpio_dm[2] *25:15 0.0481333 
*END

*D_NET *26 0.00130331
*CONN
*P pad_gpio_holdover O
*I *536:X O *D sky130_fd_sc_hd__buf_12
*CAP
1 pad_gpio_holdover 0.000553132
2 *536:X 0.000553132
3 pad_gpio_holdover pad_gpio_out 0
4 pad_gpio_holdover *437:A 0.000127004
5 pad_gpio_holdover *449:RESET_B 0
6 pad_gpio_holdover *449:SET_B 1.79483e-05
7 pad_gpio_holdover *453:RESET_B 5.20968e-05
8 *25:15 pad_gpio_holdover 0
*RES
1 *536:X pad_gpio_holdover 6.5879 
*END

*D_NET *27 0.000933343
*CONN
*P pad_gpio_hys_trim O
*I *537:X O *D sky130_fd_sc_hd__buf_12
*CAP
1 pad_gpio_hys_trim 0.000443366
2 *537:X 0.000422907
3 *27:15 2.04593e-05
4 pad_gpio_hys_trim *424:B 4.66108e-05
5 pad_gpio_hys_trim *427:A 0
6 pad_gpio_hys_trim *147:40 0
7 *27:15 pad_gpio_slew_ctl[1] 0
8 *25:15 *27:15 0
*RES
1 *537:X pad_gpio_hys_trim 10.5275 
2 pad_gpio_hys_trim *27:15 0.0481333 
*END

*D_NET *28 0.00290106
*CONN
*P pad_gpio_ib_mode_sel O
*I *538:X O *D sky130_fd_sc_hd__buf_12
*CAP
1 pad_gpio_ib_mode_sel 0.000593989
2 *538:X 0.000577241
3 *28:19 1.67487e-05
4 pad_gpio_ib_mode_sel pad_gpio_outenb 0
5 pad_gpio_ib_mode_sel *419:A 9.03508e-06
6 pad_gpio_ib_mode_sel *446:RESET_B 0.000328951
7 pad_gpio_ib_mode_sel *538:A 8.23457e-05
8 pad_gpio_ib_mode_sel *540:A 0.000229541
9 pad_gpio_ib_mode_sel *147:101 6.41634e-05
10 pad_gpio_ib_mode_sel *147:103 2.75145e-05
11 pad_gpio_ib_mode_sel *147:117 0.000453851
12 *28:19 pad_gpio_vtrip_sel 0
13 *28:19 *32:15 0
14 *482:A pad_gpio_ib_mode_sel 0.000517675
15 *525:A pad_gpio_ib_mode_sel 0
*RES
1 *538:X pad_gpio_ib_mode_sel 17.9975 
2 pad_gpio_ib_mode_sel *28:19 0.0481333 
*END

*D_NET *29 0.000627719
*CONN
*P pad_gpio_in I
*I *517:A I *D sky130_fd_sc_hd__buf_1
*CAP
1 pad_gpio_in 0.000313859
2 *517:A 0.000313859
3 *517:A *35:15 0
*RES
1 pad_gpio_in *517:A 6.26023 
*END

*D_NET *30 0.0014181
*CONN
*P pad_gpio_inenb O
*I *539:X O *D sky130_fd_sc_hd__buf_12
*CAP
1 pad_gpio_inenb 0.000488434
2 *539:X 0.000488434
3 pad_gpio_inenb *425:B 9.41249e-05
4 pad_gpio_inenb *134:20 4.24795e-05
5 pad_gpio_inenb *146:79 0.000304631
6 pad_gpio_ana_sel pad_gpio_inenb 0
7 *21:15 pad_gpio_inenb 0
*RES
1 *539:X pad_gpio_inenb 9.69177 
*END

*D_NET *31 0.00247138
*CONN
*P pad_gpio_out O
*I *540:X O *D sky130_fd_sc_hd__buf_12
*CAP
1 pad_gpio_out 0.000570619
2 *540:X 0.000570619
3 pad_gpio_out pad_gpio_vtrip_sel 0.000224366
4 pad_gpio_out *419:B 0.000189716
5 pad_gpio_out *444:RESET_B 0.000119595
6 pad_gpio_out *444:SET_B 9.30787e-05
7 pad_gpio_out *147:117 0.0001947
8 pad_gpio_out *182:30 0.00018399
9 pad_gpio_holdover pad_gpio_out 0
10 *524:A pad_gpio_out 0.0003247
*RES
1 *540:X pad_gpio_out 13.2266 
*END

*D_NET *32 0.00303463
*CONN
*P pad_gpio_outenb O
*I *541:X O *D sky130_fd_sc_hd__buf_12
*CAP
1 pad_gpio_outenb 0.000933071
2 *541:X 0.000916323
3 *32:15 1.67487e-05
4 pad_gpio_outenb pad_gpio_vtrip_sel 0.000141652
5 pad_gpio_outenb *419:A 1.91597e-05
6 pad_gpio_outenb *419:B 4.75959e-05
7 pad_gpio_outenb *526:A 0.000227789
8 pad_gpio_ib_mode_sel pad_gpio_outenb 0
9 *503:A pad_gpio_outenb 4.87914e-05
10 *507:A pad_gpio_outenb 0.000162277
11 *508:A pad_gpio_outenb 0.000521218
12 *28:19 *32:15 0
*RES
1 *541:X pad_gpio_outenb 19.6175 
2 pad_gpio_outenb *32:15 0.0481333 
*END

*D_NET *33 0.00137533
*CONN
*P pad_gpio_slew_ctl[0] O
*I *542:X O *D sky130_fd_sc_hd__buf_12
*CAP
1 pad_gpio_slew_ctl[0] 0.000656012
2 *542:X 0.000635553
3 *33:15 2.04593e-05
4 pad_gpio_slew_ctl[0] *539:A 6.33103e-05
5 pad_gpio_ana_pol pad_gpio_slew_ctl[0] 0
6 pad_gpio_dm[0] *33:15 0
7 *21:15 *33:15 0
*RES
1 *542:X pad_gpio_slew_ctl[0] 13.2275 
2 pad_gpio_slew_ctl[0] *33:15 0.0481333 
*END

*D_NET *34 0.00210703
*CONN
*P pad_gpio_slew_ctl[1] O
*I *479:LO O *D sky130_fd_sc_hd__conb_1
*CAP
1 pad_gpio_slew_ctl[1] 0.00101869
2 *479:LO 0.00101869
3 pad_gpio_slew_ctl[1] *424:B 3.64998e-06
4 pad_gpio_slew_ctl[1] *495:A 2.49909e-05
5 pad_gpio_slew_ctl[1] *137:26 4.10113e-05
6 pad_gpio_ana_sel pad_gpio_slew_ctl[1] 0
7 *27:15 pad_gpio_slew_ctl[1] 0
*RES
1 *479:LO pad_gpio_slew_ctl[1] 8.07057 
*END

*D_NET *35 0.00367055
*CONN
*P pad_gpio_slow_sel O
*I *543:X O *D sky130_fd_sc_hd__buf_12
*CAP
1 pad_gpio_slow_sel 0.000932607
2 *543:X 0.000915858
3 *35:15 1.67487e-05
4 pad_gpio_slow_sel *408:A_N 0.000224605
5 pad_gpio_slow_sel *408:B 2.53757e-05
6 pad_gpio_slow_sel *421:A 0.00012306
7 pad_gpio_slow_sel *421:B 4.2801e-05
8 pad_gpio_slow_sel *443:SET_B 6.66881e-05
9 pad_gpio_slow_sel *448:RESET_B 0.000406795
10 pad_gpio_slow_sel *490:A 0.000663178
11 pad_gpio_slow_sel *543:A 0.000252831
12 pad_gpio_ana_en pad_gpio_slow_sel 0
13 pad_gpio_dm[1] *35:15 0
14 *517:A *35:15 0
*RES
1 *543:X pad_gpio_slow_sel 24.6125 
2 pad_gpio_slow_sel *35:15 0.0481333 
*END

*D_NET *36 0.00250253
*CONN
*P pad_gpio_vtrip_sel O
*I *544:X O *D sky130_fd_sc_hd__buf_12
*CAP
1 pad_gpio_vtrip_sel 0.000749274
2 *544:X 0.000749274
3 pad_gpio_vtrip_sel *419:A 0.000139683
4 pad_gpio_vtrip_sel *419:B 3.96272e-05
5 pad_gpio_vtrip_sel *444:RESET_B 1.08814e-05
6 pad_gpio_vtrip_sel *453:RESET_B 0.000164633
7 pad_gpio_vtrip_sel *117:14 3.55252e-05
8 pad_gpio_vtrip_sel *182:30 0.000124418
9 pad_gpio_out pad_gpio_vtrip_sel 0.000224366
10 pad_gpio_outenb pad_gpio_vtrip_sel 0.000141652
11 *505:A pad_gpio_vtrip_sel 0.000123198
12 *28:19 pad_gpio_vtrip_sel 0
*RES
1 *544:X pad_gpio_vtrip_sel 13.9281 
*END

*D_NET *37 0.00594555
*CONN
*P resetn I
*I *200:A I *D sky130_fd_sc_hd__clkbuf_8
*I *478:A I *D sky130_fd_sc_hd__clkbuf_2
*CAP
1 resetn 0.000951964
2 *200:A 0.000883783
3 *478:A 0
4 *37:17 0.00183575
5 *200:A *410:A_N 0.000175277
6 *200:A *414:B 8.00716e-05
7 *200:A *455:D 1.94636e-05
8 *200:A *477:A 0.000344525
9 *200:A *512:A 0.000191956
10 *200:A *546:A 0.00053659
11 *200:A *43:26 0.000119069
12 *200:A *116:24 0
13 *200:A *148:8 9.8887e-05
14 *200:A *178:10 0.000151343
15 *37:17 *546:A 0.000358747
16 *37:17 *39:9 0.000153151
17 *37:17 *43:11 0
18 *37:17 *116:24 4.49801e-05
*RES
1 resetn *37:17 12.4074 
2 *37:17 *478:A 3.6 
3 *37:17 *200:A 24.555 
*END

*D_NET *38 0.000474452
*CONN
*P resetn_out O
*I *200:X O *D sky130_fd_sc_hd__clkbuf_8
*CAP
1 resetn_out 0.000237226
2 *200:X 0.000237226
3 resetn_out serial_clock_out 0
4 resetn_out serial_load_out 0
5 resetn_out user_gpio_in 0
*RES
1 *200:X resetn_out 6.67217 
*END

*D_NET *39 0.021695
*CONN
*P serial_clock I
*I *454:CLK I *D sky130_fd_sc_hd__dfrtp_1
*I *462:CLK I *D sky130_fd_sc_hd__dfrtp_1
*I *460:CLK I *D sky130_fd_sc_hd__dfrtp_1
*I *467:CLK I *D sky130_fd_sc_hd__dfrtp_1
*I *468:CLK I *D sky130_fd_sc_hd__dfrtp_1
*I *458:CLK I *D sky130_fd_sc_hd__dfrtp_1
*I *457:CLK I *D sky130_fd_sc_hd__dfrtp_1
*I *201:A I *D sky130_fd_sc_hd__clkbuf_8
*I *456:CLK I *D sky130_fd_sc_hd__dfrtp_1
*I *455:CLK I *D sky130_fd_sc_hd__dfrtp_1
*I *396:A I *D sky130_fd_sc_hd__inv_2
*I *469:CLK I *D sky130_fd_sc_hd__dfrtp_1
*I *459:CLK I *D sky130_fd_sc_hd__dfrtp_1
*I *461:CLK I *D sky130_fd_sc_hd__dfrtp_1
*I *466:CLK I *D sky130_fd_sc_hd__dfrtp_1
*I *464:CLK I *D sky130_fd_sc_hd__dfrtp_1
*I *463:CLK I *D sky130_fd_sc_hd__dfrtp_1
*I *465:CLK I *D sky130_fd_sc_hd__dfrtp_1
*CAP
1 serial_clock 0.000386265
2 *454:CLK 0.000173236
3 *462:CLK 3.33784e-05
4 *460:CLK 0.000282208
5 *467:CLK 0.000232385
6 *468:CLK 0.000142208
7 *458:CLK 0.000183599
8 *457:CLK 0.000286808
9 *201:A 4.96326e-05
10 *456:CLK 7.65124e-05
11 *455:CLK 0.000212403
12 *396:A 2.10148e-05
13 *469:CLK 0
14 *459:CLK 0
15 *461:CLK 0
16 *466:CLK 0
17 *464:CLK 0.000557021
18 *463:CLK 0
19 *465:CLK 0.000325009
20 *39:190 0.000397214
21 *39:166 0.000801779
22 *39:151 0.000433715
23 *39:140 0.00025606
24 *39:125 0.000988861
25 *39:114 0.000815345
26 *39:105 0.000412755
27 *39:97 0.000488131
28 *39:86 0.000450622
29 *39:73 0.00059576
30 *39:69 0.00122643
31 *39:41 0.000574677
32 *39:34 0.000137999
33 *39:21 0.000940928
34 *39:15 0.00109719
35 *39:13 0.000767766
36 *39:9 0.00129389
37 *201:A *43:38 4.80285e-05
38 *396:A *512:A 8.52137e-06
39 *454:CLK *518:A 0
40 *454:CLK *43:11 0.000335641
41 *455:CLK *455:D 8.61758e-05
42 *456:CLK *199:A 1.91597e-05
43 *456:CLK *43:32 2.49909e-05
44 *457:CLK *418:B 8.88631e-05
45 *457:CLK *457:D 2.75229e-05
46 *457:CLK *471:RESET_B 9.40887e-05
47 *457:CLK *523:A 2.01541e-05
48 *457:CLK *148:133 1.92979e-05
49 *458:CLK *458:D 0
50 *458:CLK *471:CLK 1.799e-05
51 *464:CLK *464:D 5.31553e-05
52 *464:CLK *474:A 3.36796e-05
53 *464:CLK *497:A 0
54 *464:CLK *43:90 0
55 *464:CLK *116:24 0
56 *464:CLK *123:26 9.02174e-05
57 *465:CLK *438:A 0.000380082
58 *465:CLK *465:D 4.06426e-05
59 *467:CLK *402:A_N 6.83549e-05
60 *467:CLK *467:D 6.71882e-05
61 *467:CLK *493:A 4.75991e-05
62 *467:CLK *527:A 0.000263364
63 *467:CLK *134:18 2.05056e-05
64 *467:CLK *155:16 0.000191618
65 *468:CLK *415:A 7.27402e-06
66 *468:CLK *467:RESET_B 5.06382e-06
67 *468:CLK *493:A 0.000270641
68 *39:9 *43:11 0.000173916
69 *39:9 *116:24 0
70 *39:21 *472:A 0
71 *39:21 *501:A 5.30673e-05
72 *39:34 *428:A 6.90876e-05
73 *39:34 *438:A 0.000108031
74 *39:34 *463:RESET_B 2.20753e-05
75 *39:34 *144:36 9.92716e-05
76 *39:41 *428:A 5.05437e-05
77 *39:41 *144:36 3.23663e-05
78 *39:86 *460:D 0.00018124
79 *39:86 *43:76 9.60974e-05
80 *39:86 *43:82 7.63125e-05
81 *39:86 *123:26 4.75748e-05
82 *39:86 *134:18 6.55056e-05
83 *39:86 *170:10 0.000203762
84 *39:97 *459:D 0.000222002
85 *39:97 *43:74 0.000221419
86 *39:97 *43:76 5.53249e-06
87 *39:97 *134:18 2.88519e-05
88 *39:97 *170:10 0.000109009
89 *39:105 *522:A 0.000175615
90 *39:105 *527:A 0.000179967
91 *39:105 *115:30 5.06382e-06
92 *39:114 *414:A 0.000154804
93 *39:114 *512:A 1.56428e-05
94 *39:114 *123:26 6.6732e-05
95 *39:125 *471:CLK 9.91225e-05
96 *39:125 *512:A 2.25238e-05
97 *39:125 *520:A 6.33103e-05
98 *39:140 *43:26 0.000276712