*SPEF "ieee 1481-1999"
*DESIGN "gpio_control_block_mgmt_monitor"
*DATE "18:42:47 Monday June 16, 2025"
*VENDOR "The OpenROAD Project"
*PROGRAM "OpenROAD"
*VERSION "edf00dff99f6c40d67a30c0e22a8191c5d2ed9d6"
*DESIGN_FLOW "NAME_SCOPE LOCAL" "PIN_CAP NONE"
*DIVIDER /
*DELIMITER :
*BUS_DELIMITER []
*T_UNIT 1 NS
*C_UNIT 1 PF
*R_UNIT 1 OHM
*L_UNIT 1 HENRY

*NAME_MAP
*1 gpio_defaults[0]
*2 gpio_defaults[10]
*3 gpio_defaults[11]
*4 gpio_defaults[12]
*5 gpio_defaults[13]
*6 gpio_defaults[14]
*7 gpio_defaults[15]
*8 gpio_defaults[1]
*9 gpio_defaults[2]
*10 gpio_defaults[3]
*11 gpio_defaults[4]
*12 gpio_defaults[5]
*13 gpio_defaults[6]
*14 gpio_defaults[7]
*15 gpio_defaults[8]
*16 gpio_defaults[9]
*17 mgmt_gpio_in
*18 mgmt_gpio_oeb
*19 mgmt_gpio_out
*20 pad_gpio_ana_en
*21 pad_gpio_ana_pol
*22 pad_gpio_ana_sel
*23 pad_gpio_dm[0]
*24 pad_gpio_dm[1]
*25 pad_gpio_dm[2]
*26 pad_gpio_holdover
*27 pad_gpio_hys_trim
*28 pad_gpio_ib_mode_sel
*29 pad_gpio_in
*30 pad_gpio_inenb
*31 pad_gpio_out
*32 pad_gpio_outenb
*33 pad_gpio_slew_ctl[0]
*34 net44
*35 pad_gpio_slow_sel
*36 pad_gpio_vtrip_sel
*37 resetn
*38 resetn_out
*39 serial_clock
*40 serial_clock_out
*41 serial_data_in
*42 serial_data_out
*43 serial_load
*44 serial_load_out
*45 user_gpio_in
*46 user_gpio_oeb
*47 user_gpio_out
*52 _000_
*53 _001_
*54 _002_
*55 _003_
*56 _004_
*57 _005_
*58 _006_
*59 _007_
*60 _008_
*61 _009_
*62 _010_
*63 _011_
*64 _012_
*65 _013_
*66 _014_
*67 _015_
*68 _016_
*69 _017_
*70 _018_
*71 _019_
*72 _020_
*73 _021_
*74 _022_
*75 _023_
*76 _024_
*77 _025_
*78 _026_
*79 _027_
*80 _028_
*81 _029_
*82 _030_
*83 _031_
*84 _032_
*85 _033_
*86 _034_
*87 _035_
*88 _036_
*89 _037_
*90 _038_
*91 _039_
*92 _040_
*93 _041_
*94 _042_
*95 _043_
*96 _044_
*97 _045_
*98 _046_
*99 _047_
*100 _048_
*101 _049_
*102 _050_
*103 _051_
*104 _052_
*105 _053_
*106 _054_
*107 _055_
*108 _056_
*109 gpio_logic1
*110 gpio_slew_ctl
*111 mgmt_ena
*112 net1
*113 net10
*114 net11
*115 net12
*116 net13
*117 net14
*118 net15
*119 net16
*120 net17
*121 net18
*122 net19
*123 net2
*124 net20
*125 net21
*126 net22
*127 net23
*128 net24
*129 net25
*130 net26
*131 net27
*132 net28
*133 net29
*134 net3
*135 net30
*136 net31
*137 net32
*138 net33
*139 net34
*140 net35
*141 net36
*142 net37
*143 net38
*144 net39
*145 net4
*146 net40
*147 net41
*148 net42
*149 net43
*150 net45
*151 net46
*152 net47
*153 net48
*154 net49
*155 net5
*156 net50
*157 net51
*158 net52
*159 net53
*160 net54
*161 net55
*162 net56
*163 net57
*164 net58
*165 net59
*166 net6
*167 net60
*168 net61
*169 net62
*170 net63
*171 net64
*172 net65
*173 net66
*174 net67
*175 net68
*176 net69
*177 net7
*178 net70
*179 net71
*180 net72
*181 net8
*182 net9
*183 shift_register\[0\]
*184 shift_register\[10\]
*185 shift_register\[11\]
*186 shift_register\[12\]
*187 shift_register\[13\]
*188 shift_register\[14\]
*189 shift_register\[15\]
*190 shift_register\[1\]
*191 shift_register\[2\]
*192 shift_register\[3\]
*193 shift_register\[4\]
*194 shift_register\[5\]
*195 shift_register\[6\]
*196 shift_register\[7\]
*197 shift_register\[8\]
*198 shift_register\[9\]
*199 BUF\[0\]
*200 BUF\[1\]
*201 BUF\[2\]
*202 FILLER_0_23
*203 FILLER_0_26
*204 FILLER_0_29
*205 FILLER_0_32
*206 FILLER_0_35
*207 FILLER_0_38
*208 FILLER_0_41
*209 FILLER_0_44
*210 FILLER_0_47
*211 FILLER_0_49
*212 FILLER_0_52
*213 FILLER_0_55
*214 FILLER_0_58
*215 FILLER_0_77
*216 FILLER_0_80
*217 FILLER_0_83
*218 FILLER_0_86
*219 FILLER_10_12
*220 FILLER_10_15
*221 FILLER_10_18
*222 FILLER_10_21
*223 FILLER_10_24
*224 FILLER_10_27
*225 FILLER_10_29
*226 FILLER_10_3
*227 FILLER_10_32
*228 FILLER_10_35
*229 FILLER_10_38
*230 FILLER_10_6
*231 FILLER_10_70
*232 FILLER_10_80
*233 FILLER_10_9
*234 FILLER_10_90
*235 FILLER_11_12
*236 FILLER_11_15
*237 FILLER_11_25
*238 FILLER_11_47
*239 FILLER_11_57
*240 FILLER_11_9
*241 FILLER_12_22
*242 FILLER_12_25
*243 FILLER_12_29
*244 FILLER_12_3
*245 FILLER_12_32
*246 FILLER_12_35
*247 FILLER_12_45
*248 FILLER_12_48
*249 FILLER_12_51
*250 FILLER_12_67
*251 FILLER_12_90
*252 FILLER_13_3
*253 FILLER_13_40
*254 FILLER_13_43
*255 FILLER_13_46
*256 FILLER_13_49
*257 FILLER_13_52
*258 FILLER_13_55
*259 FILLER_13_57
*260 FILLER_13_74
*261 FILLER_14_19
*262 FILLER_14_35
*263 FILLER_14_38
*264 FILLER_14_41
*265 FILLER_14_44
*266 FILLER_14_83
*267 FILLER_14_90
*268 FILLER_15_24
*269 FILLER_15_3
*270 FILLER_15_34
*271 FILLER_15_61
*272 FILLER_15_90
*273 FILLER_16_18
*274 FILLER_16_90
*275 FILLER_17_55
*276 FILLER_17_57
*277 FILLER_18_14
*278 FILLER_18_29
*279 FILLER_18_59
*280 FILLER_18_90
*281 FILLER_19_43
*282 FILLER_19_90
*283 FILLER_1_23
*284 FILLER_1_26
*285 FILLER_1_29
*286 FILLER_1_66
*287 FILLER_1_72
*288 FILLER_1_75
*289 FILLER_1_77
*290 FILLER_1_80
*291 FILLER_1_83
*292 FILLER_1_86
*293 FILLER_20_29
*294 FILLER_20_3
*295 FILLER_20_83
*296 FILLER_20_90
*297 FILLER_21_19
*298 FILLER_21_62
*299 FILLER_22_29
*300 FILLER_22_90
*301 FILLER_23_3
*302 FILLER_23_90
*303 FILLER_2_28
*304 FILLER_2_31
*305 FILLER_2_34
*306 FILLER_2_37
*307 FILLER_2_40
*308 FILLER_2_43
*309 FILLER_2_57
*310 FILLER_2_91
*311 FILLER_3_23
*312 FILLER_3_26
*313 FILLER_3_29
*314 FILLER_3_90
*315 FILLER_4_12
*316 FILLER_4_15
*317 FILLER_4_18
*318 FILLER_4_21
*319 FILLER_4_24
*320 FILLER_4_27
*321 FILLER_4_29
*322 FILLER_4_3
*323 FILLER_4_32
*324 FILLER_4_35
*325 FILLER_4_6
*326 FILLER_4_80
*327 FILLER_4_83
*328 FILLER_4_9
*329 FILLER_4_90
*330 FILLER_5_12
*331 FILLER_5_15
*332 FILLER_5_18
*333 FILLER_5_21
*334 FILLER_5_24
*335 FILLER_5_27
*336 FILLER_5_3
*337 FILLER_5_30
*338 FILLER_5_57
*339 FILLER_5_6
*340 FILLER_5_63
*341 FILLER_5_9
*342 FILLER_6_12
*343 FILLER_6_17
*344 FILLER_6_20
*345 FILLER_6_23
*346 FILLER_6_26
*347 FILLER_6_29
*348 FILLER_6_32
*349 FILLER_6_35
*350 FILLER_6_66
*351 FILLER_6_9
*352 FILLER_6_90
*353 FILLER_7_23
*354 FILLER_7_26
*355 FILLER_7_29
*356 FILLER_7_32
*357 FILLER_7_35
*358 FILLER_7_38
*359 FILLER_7_41
*360 FILLER_7_44
*361 FILLER_7_47
*362 FILLER_7_57
*363 FILLER_8_19
*364 FILLER_8_22
*365 FILLER_8_25
*366 FILLER_8_29
*367 FILLER_8_32
*368 FILLER_8_35
*369 FILLER_8_38
*370 FILLER_8_41
*371 FILLER_8_44
*372 FILLER_8_90
*373 FILLER_9_12
*374 FILLER_9_15
*375 FILLER_9_18
*376 FILLER_9_21
*377 FILLER_9_24
*378 FILLER_9_27
*379 FILLER_9_30
*380 FILLER_9_33
*381 FILLER_9_55
*382 FILLER_9_57
*383 FILLER_9_6
*384 FILLER_9_9
*385 PHY_EDGE_ROW_0_2_Left_3
*386 PHY_EDGE_ROW_0_2_Right_27
*387 PHY_EDGE_ROW_10_Left_34
*388 PHY_EDGE_ROW_10_Right_13
*389 PHY_EDGE_ROW_11_Left_35
*390 PHY_EDGE_ROW_11_Right_14
*391 PHY_EDGE_ROW_12_Left_36
*392 PHY_EDGE_ROW_12_Right_15
*393 PHY_EDGE_ROW_13_Left_37
*394 PHY_EDGE_ROW_13_Right_16
*395 PHY_EDGE_ROW_14_Left_38
*396 PHY_EDGE_ROW_14_Right_17
*397 PHY_EDGE_ROW_15_Left_39
*398 PHY_EDGE_ROW_15_Right_18
*399 PHY_EDGE_ROW_16_Left_40
*400 PHY_EDGE_ROW_16_Right_19
*401 PHY_EDGE_ROW_17_Left_41
*402 PHY_EDGE_ROW_17_Right_20
*403 PHY_EDGE_ROW_18_Left_42
*404 PHY_EDGE_ROW_18_Right_21
*405 PHY_EDGE_ROW_19_Left_43
*406 PHY_EDGE_ROW_19_Right_22
*407 PHY_EDGE_ROW_1_2_Left_0
*408 PHY_EDGE_ROW_1_2_Right_4
*409 PHY_EDGE_ROW_20_Left_44
*410 PHY_EDGE_ROW_20_Right_23
*411 PHY_EDGE_ROW_21_Left_45
*412 PHY_EDGE_ROW_21_Right_24
*413 PHY_EDGE_ROW_22_Left_46
*414 PHY_EDGE_ROW_22_Right_25
*415 PHY_EDGE_ROW_23_Left_47
*416 PHY_EDGE_ROW_23_Right_26
*417 PHY_EDGE_ROW_2_2_Left_1
*418 PHY_EDGE_ROW_2_2_Right_5
*419 PHY_EDGE_ROW_3_2_Left_2
*420 PHY_EDGE_ROW_3_2_Right_6
*421 PHY_EDGE_ROW_4_Left_28
*422 PHY_EDGE_ROW_4_Right_7
*423 PHY_EDGE_ROW_5_Left_29
*424 PHY_EDGE_ROW_5_Right_8
*425 PHY_EDGE_ROW_6_Left_30
*426 PHY_EDGE_ROW_6_Right_9
*427 PHY_EDGE_ROW_7_Left_31
*428 PHY_EDGE_ROW_7_Right_10
*429 PHY_EDGE_ROW_8_Left_32
*430 PHY_EDGE_ROW_8_Right_11
*431 PHY_EDGE_ROW_9_Left_33
*432 PHY_EDGE_ROW_9_Right_12
*433 TAP_TAPCELL_ROW_0_2_84
*434 TAP_TAPCELL_ROW_0_2_85
*435 TAP_TAPCELL_ROW_10_61
*436 TAP_TAPCELL_ROW_10_62
*437 TAP_TAPCELL_ROW_11_63
*438 TAP_TAPCELL_ROW_12_64
*439 TAP_TAPCELL_ROW_12_65
*440 TAP_TAPCELL_ROW_13_66
*441 TAP_TAPCELL_ROW_14_67
*442 TAP_TAPCELL_ROW_14_68
*443 TAP_TAPCELL_ROW_15_69
*444 TAP_TAPCELL_ROW_16_70
*445 TAP_TAPCELL_ROW_16_71
*446 TAP_TAPCELL_ROW_17_72
*447 TAP_TAPCELL_ROW_18_73
*448 TAP_TAPCELL_ROW_18_74
*449 TAP_TAPCELL_ROW_19_75
*450 TAP_TAPCELL_ROW_1_2_48
*451 TAP_TAPCELL_ROW_20_76
*452 TAP_TAPCELL_ROW_20_77
*453 TAP_TAPCELL_ROW_21_78
*454 TAP_TAPCELL_ROW_22_79
*455 TAP_TAPCELL_ROW_22_80
*456 TAP_TAPCELL_ROW_23_81
*457 TAP_TAPCELL_ROW_23_82
*458 TAP_TAPCELL_ROW_23_83
*459 TAP_TAPCELL_ROW_2_2_49
*460 TAP_TAPCELL_ROW_3_2_50
*461 TAP_TAPCELL_ROW_4_51
*462 TAP_TAPCELL_ROW_4_52
*463 TAP_TAPCELL_ROW_4_53
*464 TAP_TAPCELL_ROW_5_54
*465 TAP_TAPCELL_ROW_6_55
*466 TAP_TAPCELL_ROW_6_56
*467 TAP_TAPCELL_ROW_7_57
*468 TAP_TAPCELL_ROW_8_58
*469 TAP_TAPCELL_ROW_8_59
*470 TAP_TAPCELL_ROW_9_60
*471 _057_
*472 _058_
*473 _059_
*474 _060_
*475 _061_
*476 _062_
*477 _063_
*478 _064_
*479 _065_
*480 _066_
*481 _067_
*482 _068_
*483 _069_
*484 _070_
*485 _071_
*486 _072_
*487 _073_
*488 _074_
*489 _075_
*490 _076_
*491 _077_
*492 _078_
*493 _079_
*494 _080_
*495 _081_
*496 _082_
*497 _083_
*498 _084_
*499 _085_
*500 _086_
*501 _087_
*502 _088_
*503 _089_
*504 _090_
*505 _091_
*506 _092_
*507 _093_
*508 _094_
*509 _095_
*510 _096_
*511 _097_
*512 _098_
*513 _099_
*514 _100_
*515 _101_
*516 _102_
*517 _103_
*518 _104_
*519 _105_
*520 _106_
*521 _107_
*522 _108_
*523 _109_
*524 _110_
*525 _111_
*526 _112_
*527 _113_
*528 _114_
*529 _115_
*530 _116_
*531 _117_
*532 _118_
*533 _119_
*534 _120_
*535 _121_
*536 _122_
*537 _123_
*538 _124_
*539 _125_
*540 _126_
*541 _127_
*542 _128_
*543 _129_
*544 _130_
*545 _131_
*546 _132_
*547 _133_
*548 _135_
*549 _136_
*550 fanout39
*551 fanout40
*552 fanout41
*553 fanout42
*554 fanout43
*555 gpio_control_block_mgmt_monitor_44
*556 gpio_logic_high
*557 hold1
*558 hold10
*559 hold11
*560 hold12
*561 hold13
*562 hold14
*563 hold15
*564 hold16
*565 hold17
*566 hold18
*567 hold19
*568 hold2
*569 hold20
*570 hold21
*571 hold22
*572 hold23
*573 hold24
*574 hold25
*575 hold26
*576 hold27
*577 hold28
*578 hold3
*579 hold4
*580 hold5
*581 hold6
*582 hold7
*583 hold8
*584 hold9
*585 input1
*586 input10
*587 input11
*588 input12
*589 input13
*590 input14
*591 input15
*592 input16
*593 input17
*594 input18
*595 input19
*596 input2
*597 input20
*598 input3
*599 input4
*600 input5
*601 input6
*602 input7
*603 input8
*604 input9
*605 output21
*606 output22
*607 output23
*608 output24
*609 output25
*610 output26
*611 output27
*612 output28
*613 output29
*614 output30
*615 output31
*616 output32
*617 output33
*618 output34
*619 output35
*620 output36
*621 output37
*622 output38

*PORTS
gpio_defaults[0] I
gpio_defaults[10] I
gpio_defaults[11] I
gpio_defaults[12] I
gpio_defaults[13] I
gpio_defaults[14] I
gpio_defaults[15] I
gpio_defaults[1] I
gpio_defaults[2] I
gpio_defaults[3] I
gpio_defaults[4] I
gpio_defaults[5] I
gpio_defaults[6] I
gpio_defaults[7] I
gpio_defaults[8] I
gpio_defaults[9] I
mgmt_gpio_in O
mgmt_gpio_oeb I
mgmt_gpio_out I
pad_gpio_ana_en O
pad_gpio_ana_pol O
pad_gpio_ana_sel O
pad_gpio_dm[0] O
pad_gpio_dm[1] O
pad_gpio_dm[2] O
pad_gpio_holdover O
pad_gpio_hys_trim O
pad_gpio_ib_mode_sel O
pad_gpio_in I
pad_gpio_inenb O
pad_gpio_out O
pad_gpio_outenb O
pad_gpio_slew_ctl[0] O
pad_gpio_slew_ctl[1] O
pad_gpio_slow_sel O
pad_gpio_vtrip_sel O
resetn I
resetn_out O
serial_clock I
serial_clock_out O
serial_data_in I
serial_data_out O
serial_load I
serial_load_out O
user_gpio_in O
user_gpio_oeb I
user_gpio_out I

*D_NET *1 0.00378113
*CONN
*P gpio_defaults[0] I
*I *580:A I *D sky130_fd_sc_hd__dlygate4sd3_1
*CAP
1 gpio_defaults[0] 0.000737078
2 *580:A 0
3 *1:13 0.000737078
4 *1:13 *587:A 0.000137039
5 *1:13 *3:19 0.000304631
6 *1:13 *9:13 0
7 *1:13 *13:15 0.000145547
8 *1:13 *14:15 0.00153362
9 *1:13 *15:15 0
10 *1:13 *114:8 3.40295e-05
11 *1:13 *159:12 9.30575e-05
12 *1:13 *162:8 5.9055e-05
*RES
1 gpio_defaults[0] *1:13 36.1286 
2 *1:13 *580:A 23 
*END

*D_NET *2 0.0043938
*CONN
*P gpio_defaults[10] I
*I *558:A I *D sky130_fd_sc_hd__dlygate4sd3_1
*CAP
1 gpio_defaults[10] 0.00123901
2 *558:A 0
3 *2:23 0.00123901
4 *2:23 *579:A 3.03828e-05
5 *2:23 *3:11 0
6 *2:23 *28:10 0.00059776
7 *2:23 *60:10 0.0002263
8 *2:23 *62:14 0.000678561
9 *2:23 *137:24 2.05664e-05
10 *2:23 *153:18 0.000305508
11 *2:23 *161:12 5.67058e-05
*RES
1 gpio_defaults[10] *2:23 40.0229 
2 *2:23 *558:A 23 
*END

*D_NET *3 0.00589047
*CONN
*P gpio_defaults[11] I
*I *560:A I *D sky130_fd_sc_hd__dlygate4sd3_1
*CAP
1 gpio_defaults[11] 0.00199538
2 *560:A 0
3 *3:19 0.000353465
4 *3:11 0.00234885
5 *3:11 *4:11 3.75763e-05
6 *3:11 *15:15 0.000821937
7 *3:19 *162:8 2.86398e-05
8 *1:13 *3:19 0.000304631
9 *2:23 *3:11 0
*RES
1 gpio_defaults[11] *3:11 41.8457 
2 *3:11 *3:19 35.3857 
3 *3:19 *560:A 23 
*END

*D_NET *4 0.0071989
*CONN
*P gpio_defaults[12] I
*I *581:A I *D sky130_fd_sc_hd__dlygate4sd3_1
*CAP
1 gpio_defaults[12] 0.00267054
2 *581:A 0
3 *4:19 0.00022553
4 *4:11 0.00289607
5 *4:11 *495:B 1.03203e-05
6 *4:11 *521:D 5.42593e-05
7 *4:11 *529:D 4.03039e-05
8 *4:11 *620:A 0.000116422
9 *4:11 *5:17 0
10 *4:11 *36:14 0.000123967
11 *4:11 *58:10 7.68979e-05
12 *4:11 *83:14 4.03039e-05
13 *4:11 *89:24 7.53384e-06
14 *4:11 *147:117 5.3304e-05
15 *4:11 *147:131 0.000720952
16 *4:11 *182:38 4.51485e-05
17 *4:19 *153:18 2.64616e-05
18 *4:19 *161:12 5.3304e-05
19 *3:11 *4:11 3.75763e-05
*RES
1 gpio_defaults[12] *4:11 49.9657 
2 *4:11 *4:19 32.5271 
3 *4:19 *581:A 23 
*END

*D_NET *5 0.0107566
*CONN
*P gpio_defaults[13] I
*I *600:A I *D sky130_fd_sc_hd__clkbuf_1
*CAP
1 gpio_defaults[13] 0.0010497
2 *600:A 0.000224668
3 *5:23 0.00185343
4 *5:17 0.00267845
5 *600:A *39:105 0.000430644
6 *600:A *39:190 4.08664e-05
7 *600:A *134:10 0.000640203
8 *600:A *162:20 8.27123e-05
9 *5:17 *483:B 0.000224529
10 *5:17 *493:B 0.000160756
11 *5:17 *495:B 0.0004564
12 *5:17 *525:RESET_B 3.22879e-05
13 *5:17 *525:SET_B 3.17209e-05
14 *5:17 *7:11 0.000109277
15 *5:17 *31:10 0.000385303
16 *5:17 *62:8 8.27285e-05
17 *5:17 *76:8 2.88514e-05
18 *5:17 *131:10 0.000184034
19 *5:17 *133:12 0.00012231
20 *5:17 *145:30 0.000271112
21 *5:17 *182:30 0.000302741
22 *5:23 *491:A 1.59094e-05
23 *5:23 *525:CLK_N 0.000108098
24 *5:23 *543:RESET_B 0
25 *5:23 *39:97 3.33082e-05
26 *5:23 *39:196 0.000368946
27 *5:23 *54:10 3.31953e-06
28 *5:23 *55:8 4.22083e-05
29 *5:23 *76:8 2.96028e-05
30 *5:23 *114:14 0.000400888
31 *5:23 *149:60 2.60587e-05
32 *5:23 *176:12 2.61642e-05
33 *5:23 *179:29 0.000280698
34 *5:23 *191:10 2.86398e-05
35 *4:11 *5:17 0
*RES
1 gpio_defaults[13] *5:17 41.9907 
2 *5:17 *5:23 37.8064 
3 *5:23 *600:A 45.2914 
*END

*D_NET *7 0.00624313
*CONN
*P gpio_defaults[15] I
*I *601:A I *D sky130_fd_sc_hd__clkbuf_1
*CAP
1 gpio_defaults[15] 0.00220929
2 *601:A 5.67488e-05
3 *7:11 0.00226604
4 *601:A *149:74 0
5 *7:11 pad_gpio_ib_mode_sel 0
6 *7:11 *483:B 4.78267e-05
7 *7:11 *493:B 7.53879e-05
8 *7:11 *520:SET_B 7.15867e-05
9 *7:11 *62:8 3.58626e-05
10 *7:11 *77:8 4.0266e-05
11 *7:11 *133:12 0.00043009
12 *7:11 *141:8 1.14581e-05
13 *7:11 *147:84 0.000277161
14 *7:11 *147:101 0.000388073
15 *7:11 *149:74 2.02872e-05
16 *7:11 *166:8 0.000136738
17 *7:11 *180:37 6.70361e-05
18 *5:17 *7:11 0.000109277
*RES
1 gpio_defaults[15] *7:11 49.7379 
2 *7:11 *601:A 24.2014 
*END

*D_NET *9 0.00466265
*CONN
*P gpio_defaults[2] I
*I *568:A I *D sky130_fd_sc_hd__dlygate4sd3_1
*CAP
1 gpio_defaults[2] 0.0017027
2 *568:A 0
3 *9:13 0.0017027
4 *9:13 *522:RESET_B 2.32004e-05
5 *9:13 *10:11 0.000120338
6 *9:13 *12:21 1.92118e-05
7 *9:13 *15:15 0.000155053
8 *9:13 *60:10 0
9 *9:13 *90:12 0.000296214
10 *9:13 *114:14 0
11 *9:13 *176:27 0
12 *9:13 *177:14 0.000643233
13 *1:13 *9:13 0
*RES
1 gpio_defaults[2] *9:13 41.1 
2 *9:13 *568:A 23 
*END

*D_NET *10 0.00560636
*CONN
*P gpio_defaults[3] I
*I *557:A I *D sky130_fd_sc_hd__dlygate4sd3_1
*CAP
1 gpio_defaults[3] 0.00174216
2 *557:A 0
3 *10:17 6.72823e-05
4 *10:11 0.00180944
5 *10:11 *11:15 7.86182e-05
6 *10:11 *153:8 3.58626e-05
7 *10:11 *153:18 0.00160737
8 *10:11 *177:14 0.000106814
9 *10:17 *156:12 0
10 *10:17 *159:12 3.84656e-05
11 *9:13 *10:11 0.000120338
*RES
1 gpio_defaults[3] *10:11 41.4314 
2 *10:11 *10:17 31.2014 
3 *10:17 *557:A 23 
*END

*D_NET *11 0.00752475
*CONN
*P gpio_defaults[4] I
*I *578:A I *D sky130_fd_sc_hd__dlygate4sd3_1
*CAP
1 gpio_defaults[4] 0.0015838
2 *578:A 0
3 *11:21 0.000482356
4 *11:15 0.00206616
5 *11:15 *476:B 5.15096e-05
6 *11:15 *502:B 0.000344112
7 *11:15 *520:CLK_N 0
8 *11:15 *12:21 0.000638953
9 *11:15 *43:169 0.000432287
10 *11:15 *43:178 0.000185922
11 *11:15 *63:8 5.79934e-05
12 *11:15 *136:10 0.000935425
13 *11:15 *149:74 7.76364e-06
14 *11:15 *153:8 0.000108194
15 *11:15 *177:14 6.88281e-05
16 *11:15 *179:29 2.96478e-05
17 *11:15 *189:10 0
18 *11:21 *137:24 0.000453183
19 *10:11 *11:15 7.86182e-05
*RES
1 gpio_defaults[4] *11:15 48.495 
2 *11:15 *11:21 36.4836 
3 *11:21 *578:A 23 
*END

*D_NET *12 0.00380775
*CONN
*P gpio_defaults[5] I
*I *582:A I *D sky130_fd_sc_hd__dlygate4sd3_1
*CAP
1 gpio_defaults[5] 0.0013386
2 *582:A 0
3 *12:21 0.0013386
4 *12:21 *522:CLK_N 1.94812e-05
5 *12:21 *522:RESET_B 0.000228836
6 *12:21 *602:A 6.22219e-05
7 *12:21 *13:15 7.46656e-05
8 *12:21 *63:8 8.62876e-05
9 *12:21 *148:112 8.91468e-07
10 *9:13 *12:21 1.92118e-05
11 *11:15 *12:21 0.000638953
*RES
1 gpio_defaults[5] *12:21 37.5371 
2 *12:21 *582:A 23 
*END

*D_NET *13 0.00263594
*CONN
*P gpio_defaults[6] I
*I *583:A I *D sky130_fd_sc_hd__dlygate4sd3_1
*CAP
1 gpio_defaults[6] 0.000764173
2 *583:A 0
3 *13:15 0.000764173
4 *13:15 *602:A 0.000108962
5 *13:15 *14:15 0.000134006
6 *13:15 *32:6 0.000175635
7 *13:15 *114:8 0.000173442
8 *13:15 *177:12 0.000295334
9 *1:13 *13:15 0.000145547
10 *12:21 *13:15 7.46656e-05
*RES
1 gpio_defaults[6] *13:15 31.8614 
2 *13:15 *583:A 23 
*END

*D_NET *14 0.00666611
*CONN
*P gpio_defaults[7] I
*I *584:A I *D sky130_fd_sc_hd__dlygate4sd3_1
*CAP
1 gpio_defaults[7] 0.0021684
2 *584:A 0
3 *14:15 0.0021684
4 *14:15 *15:15 2.73376e-05
5 *14:15 *32:6 0.000604954
6 *14:15 *159:12 2.93845e-05
7 *1:13 *14:15 0.00153362
8 *13:15 *14:15 0.000134006
*RES
1 gpio_defaults[7] *14:15 48.06 
2 *14:15 *584:A 23 
*END

*D_NET *15 0.00255591
*CONN
*P gpio_defaults[8] I
*I *559:A I *D sky130_fd_sc_hd__dlygate4sd3_1
*CAP
1 gpio_defaults[8] 0.000739495
2 *559:A 0
3 *15:15 0.000739495
4 *15:15 *579:A 7.25917e-05
5 *15:15 *114:14 0
6 *15:15 *138:10 0
7 *1:13 *15:15 0
8 *3:11 *15:15 0.000821937
9 *9:13 *15:15 0.000155053
10 *14:15 *15:15 2.73376e-05
*RES
1 gpio_defaults[8] *15:15 46.3229 
2 *15:15 *559:A 38 
*END

*D_NET *16 0.00170845
*CONN
*P gpio_defaults[9] I
*I *579:A I *D sky130_fd_sc_hd__dlygate4sd3_1
*CAP
1 gpio_defaults[9] 0.000716641
2 *579:A 0.000716641
3 *579:A *602:A 6.92143e-05
4 *579:A *32:6 4.96795e-05
5 *579:A *177:12 5.3304e-05
6 *2:23 *579:A 3.03828e-05
7 *15:15 *579:A 7.25917e-05
*RES
1 gpio_defaults[9] *579:A 48.9371 
*END

*D_NET *17 0.00100254
*CONN
*P mgmt_gpio_in O
*I *605:X O *D sky130_fd_sc_hd__buf_12
*CAP
1 mgmt_gpio_in 4.08584e-05
2 *605:X 0.000460413
3 *17:10 0.000501272
4 mgmt_gpio_in *19:13 0
5 mgmt_gpio_in *41:13 0
6 *17:10 *19:13 0
7 *17:10 *43:11 0
*RES
1 *605:X *17:10 46.1718 
2 *17:10 mgmt_gpio_in 8.1568 
*END

*D_NET *18 0.000987278
*CONN
*P mgmt_gpio_oeb I
*I *591:A I *D sky130_fd_sc_hd__clkbuf_1
*CAP
1 mgmt_gpio_oeb 0.000388156
2 *591:A 0.000388156
3 *591:A *597:A 0
4 *591:A *19:13 0
5 *591:A *116:18 0
6 *591:A *119:8 0.000210966
*RES
1 mgmt_gpio_oeb *591:A 49.7157 
*END

*D_NET *19 0.000592404
*CONN
*P mgmt_gpio_out I
*I *592:A I *D sky130_fd_sc_hd__clkbuf_1
*CAP
1 mgmt_gpio_out 0.000296202
2 *592:A 0
3 *19:13 0.000296202
4 *19:13 *43:11 0
5 mgmt_gpio_in *19:13 0
6 *591:A *19:13 0
7 *17:10 *19:13 0
*RES
1 mgmt_gpio_out *19:13 27.1473 
2 *19:13 *592:A 23 
*END

*D_NET *20 0.00324813
*CONN
*P pad_gpio_ana_en O
*I *606:X O *D sky130_fd_sc_hd__buf_12
*CAP
1 pad_gpio_ana_en 0.000670818
2 *606:X 0.000442392
3 *20:8 0.00111321
4 pad_gpio_ana_en pad_gpio_dm[0] 0
5 pad_gpio_ana_en pad_gpio_dm[1] 0
6 pad_gpio_ana_en *497:B 0.000157886
7 pad_gpio_ana_en *35:10 0
8 pad_gpio_ana_en *134:20 0.000365912
9 *20:8 *606:A 0.000135037
10 *20:8 *120:8 0.000362874
*RES
1 *606:X *20:8 47.1971 
2 *20:8 pad_gpio_ana_en 18.6813 
*END

*D_NET *21 0.00150089
*CONN
*P pad_gpio_ana_pol O
*I *607:X O *D sky130_fd_sc_hd__buf_12
*CAP
1 pad_gpio_ana_pol 3.0422e-05
2 *607:X 0.000503027
3 *21:15 3.0422e-05
4 *21:10 0.000503027
5 *21:10 *33:8 0
6 *21:10 *74:10 3.07986e-05
7 *21:10 *110:18 9.41704e-05
8 *21:10 *115:38 0.000141165
9 *21:10 *134:18 1.30878e-05
10 *21:10 *146:68 0.000134487
11 *21:10 *146:79 2.02872e-05
12 *21:15 pad_gpio_inenb 0
13 *21:15 *33:15 0
*RES
1 *607:X *21:10 47.5182 
2 *21:10 pad_gpio_ana_pol 8 
3 pad_gpio_ana_pol *21:15 0.0709333 
*END

*D_NET *22 0.00177755
*CONN
*P pad_gpio_ana_sel O
*I *608:X O *D sky130_fd_sc_hd__buf_12
*CAP
1 pad_gpio_ana_sel 0.000437818
2 *608:X 0.000291422
3 *22:10 0.00072924
4 pad_gpio_ana_sel pad_gpio_inenb 0
5 pad_gpio_ana_sel pad_gpio_slew_ctl[1] 0
6 *22:10 *78:10 5.41288e-05
7 *22:10 *128:10 0.000141879
8 *22:10 *152:10 2.31113e-05
9 *22:10 *182:30 9.99487e-05
*RES
1 *608:X *22:10 43.7896 
2 *22:10 pad_gpio_ana_sel 9.1872 
*END

*D_NET *23 0.00171637
*CONN
*P pad_gpio_dm[0] O
*I *609:X O *D sky130_fd_sc_hd__buf_12
*CAP
1 pad_gpio_dm[0] 0.000501534
2 *609:X 0.000233449
3 *23:10 0.000734983
4 pad_gpio_dm[0] *33:15 0
5 *23:10 *65:8 6.02684e-06
6 *23:10 *123:26 9.62666e-05
7 *23:10 *123:38 0
8 *23:10 *129:10 0.00014411
9 pad_gpio_ana_en pad_gpio_dm[0] 0
*RES
1 *609:X *23:10 42.8368 
2 *23:10 pad_gpio_dm[0] 9.35893 
*END

*D_NET *24 0.00505723
*CONN
*P pad_gpio_dm[1] O
*I *610:X O *D sky130_fd_sc_hd__buf_12
*CAP
1 pad_gpio_dm[1] 0.00186627
2 *610:X 0.000454973
3 *24:10 0.00232124
4 pad_gpio_dm[1] *35:15 0
5 pad_gpio_dm[1] *116:24 7.87537e-05
6 *24:10 *610:A 9.10096e-05
7 *24:10 *66:12 0.00017708
8 *24:10 *175:12 6.79006e-05
9 *24:10 *197:10 0
10 pad_gpio_ana_en pad_gpio_dm[1] 0
*RES
1 *610:X *24:10 46.2961 
2 *24:10 pad_gpio_dm[1] 11.7632 
*END

*D_NET *25 0.00165953
*CONN
*P pad_gpio_dm[2] O
*I *611:X O *D sky130_fd_sc_hd__buf_12
*CAP
1 pad_gpio_dm[2] 3.0422e-05
2 *611:X 0.000604718
3 *25:15 3.0422e-05
4 *25:10 0.000604718
5 *25:10 *473:A_N 0.000140099
6 *25:10 *43:178 9.41704e-05
7 *25:10 *69:10 0.000142097
8 *25:10 *145:30 1.28818e-05
9 *25:15 pad_gpio_holdover 0
10 *25:15 *27:15 0
*RES
1 *611:X *25:10 48.5746 
2 *25:10 pad_gpio_dm[2] 8 
3 pad_gpio_dm[2] *25:15 0.0709333 
*END

*D_NET *26 0.00155013
*CONN
*P pad_gpio_holdover O
*I *612:X O *D sky130_fd_sc_hd__buf_12
*CAP
1 pad_gpio_holdover 0.000660857
2 *612:X 0.000660857
3 pad_gpio_holdover pad_gpio_out 0
4 pad_gpio_holdover *513:A 0.000151686
5 pad_gpio_holdover *529:RESET_B 5.56203e-05
6 pad_gpio_holdover *68:8 0
7 pad_gpio_holdover *69:10 2.11066e-05
8 *25:15 pad_gpio_holdover 0
*RES
1 *612:X pad_gpio_holdover 49.5266 
*END

*D_NET *27 0.0011332
*CONN
*P pad_gpio_hys_trim O
*I *613:X O *D sky130_fd_sc_hd__buf_12
*CAP
1 pad_gpio_hys_trim 2.44528e-05
2 *613:X 0.000515493
3 *27:15 2.44528e-05
4 *27:10 0.000515493
5 *27:10 *503:A 0
6 *27:10 *114:28 5.3304e-05
7 *27:10 *147:40 0
8 *27:15 pad_gpio_slew_ctl[1] 0
9 *25:15 *27:15 0
*RES
1 *613:X *27:10 46.8761 
2 *27:10 pad_gpio_hys_trim 8 
3 pad_gpio_hys_trim *27:15 0.0709333 
*END

*D_NET *28 0.0036047
*CONN
*P pad_gpio_ib_mode_sel O
*I *614:X O *D sky130_fd_sc_hd__buf_12
*CAP
1 pad_gpio_ib_mode_sel 0.000118818
2 *614:X 0.000717378
3 *28:19 1.84836e-05
4 *28:10 0.000817712
5 pad_gpio_ib_mode_sel *147:101 0
6 *28:10 *614:A 9.41704e-05
7 *28:10 *616:A 0.000261956
8 *28:10 *32:6 0
9 *28:10 *62:14 0.000365487
10 *28:10 *147:101 6.64565e-05
11 *28:10 *147:103 2.93747e-05
12 *28:10 *147:117 0.000506112
13 *28:10 *147:157 1.09903e-05
14 *28:19 pad_gpio_vtrip_sel 0
15 *28:19 *32:15 0
16 *2:23 *28:10 0.00059776
17 *7:11 pad_gpio_ib_mode_sel 0
*RES
1 *614:X *28:10 40.4621 
2 *28:10 pad_gpio_ib_mode_sel 24.7296 
3 pad_gpio_ib_mode_sel *28:19 0.0709333 
*END

*D_NET *29 0.000748333
*CONN
*P pad_gpio_in I
*I *593:A I *D sky130_fd_sc_hd__buf_1
*CAP
1 pad_gpio_in 0.000374166
2 *593:A 0.000374166
3 *593:A *35:15 0
*RES
1 pad_gpio_in *593:A 49.0201 
*END

*D_NET *30 0.00179628
*CONN
*P pad_gpio_inenb O
*I *615:X O *D sky130_fd_sc_hd__buf_12
*CAP
1 pad_gpio_inenb 0.000284001
2 *615:X 0.00036896
3 *30:8 0.000652961
4 *30:8 *115:38 8.59219e-05
5 *30:8 *134:20 4.22083e-05
6 *30:8 *146:79 0.00036223
7 pad_gpio_ana_sel pad_gpio_inenb 0
8 *21:15 pad_gpio_inenb 0
*RES
1 *615:X *30:8 45.0118 
2 *30:8 pad_gpio_inenb 8.75787 
*END

*D_NET *31 0.00307144
*CONN
*P pad_gpio_out O
*I *616:X O *D sky130_fd_sc_hd__buf_12
*CAP
1 pad_gpio_out 0.000372758
2 *616:X 0.000382499
3 *31:10 0.000755257
4 pad_gpio_out pad_gpio_vtrip_sel 0
5 *31:10 pad_gpio_vtrip_sel 1.78655e-05
6 *31:10 *495:B 0.000226996
7 *31:10 *36:14 0.000247074
8 *31:10 *58:10 0.000138103
9 *31:10 *59:8 0.000110922
10 *31:10 *147:117 0.000221997
11 *31:10 *182:30 0.000212665
12 pad_gpio_holdover pad_gpio_out 0
13 *5:17 *31:10 0.000385303
*RES
1 *616:X *31:10 49.6518 
2 *31:10 pad_gpio_out 9.01547 
*END

*D_NET *32 0.00380362
*CONN
*P pad_gpio_outenb O
*I *617:X O *D sky130_fd_sc_hd__buf_12
*CAP
1 pad_gpio_outenb 4.44159e-05
2 *617:X 0.00119653
3 *32:15 1.84836e-05
4 *32:6 0.00122246
5 *32:6 *495:B 5.52998e-05
6 *32:6 *602:A 0.000262705
7 *32:6 *36:14 0.000153176
8 *32:6 *147:157 2.02872e-05
9 *579:A *32:6 4.96795e-05
10 *13:15 *32:6 0.000175635
11 *14:15 *32:6 0.000604954
12 *28:10 *32:6 0
13 *28:19 *32:15 0
*RES
1 *617:X *32:6 44.1079 
2 *32:6 pad_gpio_outenb 23.3211 
3 pad_gpio_outenb *32:15 0.0709333 
*END

*D_NET *33 0.0016836
*CONN
*P pad_gpio_slew_ctl[0] O
*I *618:X O *D sky130_fd_sc_hd__buf_12
*CAP
1 pad_gpio_slew_ctl[0] 8.89054e-05
2 *618:X 0.000719379
3 *33:15 2.44528e-05
4 *33:8 0.000783831
5 *33:8 *615:A 6.70361e-05
6 pad_gpio_dm[0] *33:15 0
7 *21:10 *33:8 0
8 *21:15 *33:15 0
*RES
1 *618:X *33:8 49.5793 
2 *33:8 pad_gpio_slew_ctl[0] 9.02536 
3 pad_gpio_slew_ctl[0] *33:15 0.0709333 
*END

*D_NET *34 0.00254247
*CONN
*P pad_gpio_slew_ctl[1] O
*I *555:LO O *D sky130_fd_sc_hd__conb_1
*CAP
1 pad_gpio_slew_ctl[1] 0.000930385
2 *555:LO 0.000306823
3 *34:12 0.00123721
4 *34:12 *114:28 3.7122e-06
5 *34:12 *137:14 3.78847e-05
6 *34:12 *196:14 2.64616e-05
7 pad_gpio_ana_sel pad_gpio_slew_ctl[1] 0
8 *27:15 pad_gpio_slew_ctl[1] 0
*RES
1 *555:LO *34:12 49.3246 
2 *34:12 pad_gpio_slew_ctl[1] 2.30347 
*END

*D_NET *35 0.00440536
*CONN
*P pad_gpio_slow_sel O
*I *619:X O *D sky130_fd_sc_hd__buf_12
*CAP
1 pad_gpio_slow_sel 1.84836e-05
2 *619:X 0
3 *35:15 1.84836e-05
4 *35:10 0.00117691
5 *35:4 0.00117691
6 *35:10 *484:A_N 0.000261073
7 *35:10 *484:B 2.81537e-05
8 *35:10 *497:A 0.000145154
9 *35:10 *497:B 4.72245e-05
10 *35:10 *57:10 6.80324e-05
11 *35:10 *66:6 0.000436649
12 *35:10 *140:20 0.000261862
13 *35:10 *185:8 0.000766422
14 pad_gpio_ana_en *35:10 0
15 pad_gpio_dm[1] *35:15 0
16 *593:A *35:15 0
*RES
1 *619:X *35:4 23 
2 *35:4 *35:10 43.3268 
3 *35:10 pad_gpio_slow_sel 8 
4 pad_gpio_slow_sel *35:15 0.0709333 
*END

*D_NET *36 0.00318575
*CONN
*P pad_gpio_vtrip_sel O
*I *620:X O *D sky130_fd_sc_hd__buf_12
*CAP
1 pad_gpio_vtrip_sel 0.000447412
2 *620:X 0.000576624
3 *36:14 0.00102404
4 pad_gpio_vtrip_sel *529:RESET_B 0.000115654
5 pad_gpio_vtrip_sel *117:14 3.68214e-05
6 pad_gpio_vtrip_sel *182:30 0.000146087
7 *36:14 *495:B 4.28997e-05
8 *36:14 *529:RESET_B 7.87505e-05
9 *36:14 *58:10 9.89529e-06
10 *36:14 *147:157 0.000165488
11 *36:14 *182:30 0
12 pad_gpio_out pad_gpio_vtrip_sel 0
13 *4:11 *36:14 0.000123967
14 *28:19 pad_gpio_vtrip_sel 0
15 *31:10 pad_gpio_vtrip_sel 1.78655e-05
16 *31:10 *36:14 0.000247074
17 *32:6 *36:14 0.000153176
*RES
1 *620:X *36:14 48.9061 
2 *36:14 pad_gpio_vtrip_sel 10.7408 
*END

*D_NET *37 0.00725869
*CONN
*P resetn I
*I *200:A I *D sky130_fd_sc_hd__clkbuf_8
*I *554:A I *D sky130_fd_sc_hd__clkbuf_2
*CAP
1 resetn 0.0011325
2 *200:A 0
3 *554:A 0
4 *37:30 0.00123738
5 *37:17 0.00236988
6 *37:17 *39:9 0.00016871
7 *37:17 *43:11 0
8 *37:17 *116:18 0
9 *37:17 *116:24 4.24915e-05
10 *37:17 *143:12 0.000388614
11 *37:30 *486:A_N 0.000210337
12 *37:30 *531:D 1.94418e-05
13 *37:30 *43:26 0.000123748
14 *37:30 *112:28 9.51908e-05
15 *37:30 *116:18 0
16 *37:30 *143:12 0.000569038
17 *37:30 *148:8 0.000116449
18 *37:30 *149:29 0.000396814
19 *37:30 *149:35 1.16773e-05
20 *37:30 *159:24 0.000228744
21 *37:30 *178:10 0.000147672
*RES
1 resetn *37:17 39.1679 
2 *37:17 *554:A 38 
3 *37:17 *37:30 43.9379 
4 *37:30 *200:A 23 
*END

*D_NET *38 0.00056343
*CONN
*P resetn_out O
*I *200:X O *D sky130_fd_sc_hd__clkbuf_8
*CAP
1 resetn_out 0.000281715
2 *200:X 0.000281715
3 resetn_out serial_clock_out 0
4 resetn_out user_gpio_in 0
5 resetn_out *44:10 0
*RES
1 *200:X resetn_out 49.5673 
*END

*D_NET *39 0.0272503
*CONN
*P serial_clock I
*I *530:CLK I *D sky130_fd_sc_hd__dfrtp_1
*I *538:CLK I *D sky130_fd_sc_hd__dfrtp_1
*I *536:CLK I *D sky130_fd_sc_hd__dfrtp_1
*I *543:CLK I *D sky130_fd_sc_hd__dfrtp_1
*I *544:CLK I *D sky130_fd_sc_hd__dfrtp_1
*I *534:CLK I *D sky130_fd_sc_hd__dfrtp_1
*I *533:CLK I *D sky130_fd_sc_hd__dfrtp_1
*I *201:A I *D sky130_fd_sc_hd__clkbuf_8
*I *532:CLK I *D sky130_fd_sc_hd__dfrtp_1
*I *531:CLK I *D sky130_fd_sc_hd__dfrtp_1
*I *472:A I *D sky130_fd_sc_hd__inv_2
*I *545:CLK I *D sky130_fd_sc_hd__dfrtp_1
*I *535:CLK I *D sky130_fd_sc_hd__dfrtp_1
*I *537:CLK I *D sky130_fd_sc_hd__dfrtp_1
*I *542:CLK I *D sky130_fd_sc_hd__dfrtp_1
*I *540:CLK I *D sky130_fd_sc_hd__dfrtp_1
*I *539:CLK I *D sky130_fd_sc_hd__dfrtp_1
*I *541:CLK I *D sky130_fd_sc_hd__dfrtp_1
*CAP
1 serial_clock 0.000459417
2 *530:CLK 0.000227017
3 *538:CLK 4.55997e-05
4 *536:CLK 0.00037164
5 *543:CLK 0.000357129
6 *544:CLK 0
7 *534:CLK 0.000237124
8 *533:CLK 0
9 *201:A 6.54255e-05
10 *532:CLK 0.0001059
11 *531:CLK 0.000264413
12 *472:A 2.96516e-05
13 *545:CLK 0
14 *535:CLK 0
15 *537:CLK 0
16 *542:CLK 0
17 *540:CLK 9.46691e-05
18 *539:CLK 0
19 *541:CLK 0
20 *39:196 0.000230675
21 *39:190 0.000624531
22 *39:174 0.00039243
23 *39:166 0.00106146
24 *39:151 0.000577247
25 *39:140 0.000381458
26 *39:125 0.00132911
27 *39:114 0.00111149
28 *39:105 0.000604556
29 *39:97 0.000731264
30 *39:86 0.000674631