*SPEF "ieee 1481-1999"
*DESIGN "housekeeping"
*DATE "22:22:58 Sunday June 15, 2025"
*VENDOR "The OpenROAD Project"
*PROGRAM "OpenROAD"
*VERSION "edf00dff99f6c40d67a30c0e22a8191c5d2ed9d6"
*DESIGN_FLOW "NAME_SCOPE LOCAL" "PIN_CAP NONE"
*DIVIDER /
*DELIMITER :
*BUS_DELIMITER []
*T_UNIT 1 NS
*C_UNIT 1 PF
*R_UNIT 1 OHM
*L_UNIT 1 HENRY

*NAME_MAP
*3 hk_spi_csb
*4 hk_spi_sck
*5 hk_spi_sdi
*6 hk_spi_sdo
*7 irq
*8 mask_rev_in[0]
*9 mask_rev_in[10]
*10 mask_rev_in[11]
*11 mask_rev_in[12]
*12 mask_rev_in[13]
*13 mask_rev_in[14]
*14 mask_rev_in[15]
*15 mask_rev_in[16]
*16 mask_rev_in[17]
*17 mask_rev_in[18]
*18 mask_rev_in[19]
*19 mask_rev_in[1]
*20 mask_rev_in[20]
*21 mask_rev_in[21]
*22 mask_rev_in[22]
*23 mask_rev_in[23]
*24 mask_rev_in[24]
*25 mask_rev_in[25]
*26 mask_rev_in[26]
*27 mask_rev_in[27]
*28 mask_rev_in[28]
*29 mask_rev_in[29]
*30 mask_rev_in[2]
*31 mask_rev_in[30]
*32 mask_rev_in[31]
*33 mask_rev_in[3]
*34 mask_rev_in[4]
*35 mask_rev_in[5]
*36 mask_rev_in[6]
*37 mask_rev_in[7]
*38 mask_rev_in[8]
*39 mask_rev_in[9]
*40 pad_flash_clk
*41 pad_flash_clk_oeb
*42 pad_flash_csb
*43 pad_flash_csb_oeb
*44 pad_flash_io0_di
*45 pad_flash_io0_do
*46 pad_flash_io0_ieb
*47 pad_flash_io0_oeb
*48 pad_flash_io1_di
*49 pad_flash_io1_do
*50 pad_flash_io1_ieb
*51 pad_flash_io1_oeb
*52 pad_flash_io2_di
*53 pad_flash_io2_do
*54 pad_flash_io2_ieb
*55 pad_flash_io2_oeb
*56 pad_flash_io3_di
*57 pad_flash_io3_do
*58 pad_flash_io3_ieb
*59 pad_flash_io3_oeb
*60 porb
*61 prod_id[0]
*62 prod_id[1]
*63 prod_id[2]
*64 prod_id[3]
*65 prod_id[4]
*66 prod_id[5]
*67 prod_id[6]
*68 prod_id[7]
*69 reset
*70 serial_clock
*71 serial_data_1
*72 serial_data_2
*73 serial_load
*74 serial_resetn
*75 spimemio_flash_clk
*76 spimemio_flash_csb
*77 spimemio_flash_io0_di
*78 spimemio_flash_io0_do
*79 spimemio_flash_io0_oeb
*80 spimemio_flash_io1_di
*81 spimemio_flash_io1_do
*82 spimemio_flash_io1_oeb
*83 spimemio_flash_io2_di
*84 spimemio_flash_io2_do
*85 spimemio_flash_io2_oeb
*86 spimemio_flash_io3_di
*87 spimemio_flash_io3_do
*88 spimemio_flash_io3_oeb
*89 wb_ack_o
*90 wb_adr_i[0]
*91 wb_adr_i[10]
*92 wb_adr_i[11]
*93 wb_adr_i[12]
*94 wb_adr_i[13]
*95 wb_adr_i[14]
*96 wb_adr_i[15]
*97 wb_adr_i[16]
*98 wb_adr_i[17]
*99 wb_adr_i[18]
*100 wb_adr_i[19]
*101 wb_adr_i[1]
*102 wb_adr_i[20]
*103 wb_adr_i[21]
*104 wb_adr_i[22]
*105 wb_adr_i[23]
*106 wb_adr_i[24]
*107 wb_adr_i[25]
*108 wb_adr_i[26]
*109 wb_adr_i[27]
*110 wb_adr_i[28]
*111 wb_adr_i[29]
*112 wb_adr_i[2]
*113 wb_adr_i[30]
*114 wb_adr_i[31]
*115 wb_adr_i[3]
*116 wb_adr_i[4]
*117 wb_adr_i[5]
*118 wb_adr_i[6]
*119 wb_adr_i[7]
*120 wb_adr_i[8]
*121 wb_adr_i[9]
*122 wb_clk_i
*123 wb_cyc_i
*124 wb_dat_i[0]
*125 wb_dat_i[10]
*126 wb_dat_i[11]
*127 wb_dat_i[12]
*128 wb_dat_i[13]
*129 wb_dat_i[14]
*130 wb_dat_i[15]
*131 wb_dat_i[16]
*132 wb_dat_i[17]
*133 wb_dat_i[18]
*134 wb_dat_i[19]
*135 wb_dat_i[1]
*136 wb_dat_i[20]
*137 wb_dat_i[21]
*138 wb_dat_i[22]
*139 wb_dat_i[23]
*140 wb_dat_i[24]
*141 wb_dat_i[25]
*142 wb_dat_i[26]
*143 wb_dat_i[27]
*144 wb_dat_i[28]
*145 wb_dat_i[29]
*146 wb_dat_i[2]
*147 wb_dat_i[30]
*148 wb_dat_i[31]
*149 wb_dat_i[3]
*150 wb_dat_i[4]
*151 wb_dat_i[5]
*152 wb_dat_i[6]
*153 wb_dat_i[7]
*154 wb_dat_i[8]
*155 wb_dat_i[9]
*156 wb_dat_o[0]
*157 wb_dat_o[10]
*158 wb_dat_o[11]
*159 wb_dat_o[12]
*160 wb_dat_o[13]
*161 wb_dat_o[14]
*162 wb_dat_o[15]
*163 wb_dat_o[16]
*164 wb_dat_o[17]
*165 wb_dat_o[18]
*166 wb_dat_o[19]
*167 wb_dat_o[1]
*168 wb_dat_o[20]
*169 wb_dat_o[21]
*170 wb_dat_o[22]
*171 wb_dat_o[23]
*172 wb_dat_o[24]
*173 wb_dat_o[25]
*174 wb_dat_o[26]
*175 wb_dat_o[27]
*176 wb_dat_o[28]
*177 wb_dat_o[29]
*178 wb_dat_o[2]
*179 wb_dat_o[30]
*180 wb_dat_o[31]
*181 wb_dat_o[3]
*182 wb_dat_o[4]
*183 wb_dat_o[5]
*184 wb_dat_o[6]
*185 wb_dat_o[7]
*186 wb_dat_o[8]
*187 wb_dat_o[9]
*188 wb_rstn_i
*189 wb_sel_i[0]
*190 wb_sel_i[1]
*191 wb_sel_i[2]
*192 wb_sel_i[3]
*193 wb_stb_i
*194 wb_we_i
*195 _0000_
*196 _0001_
*197 _0002_
*198 _0003_
*199 _0004_
*200 _0005_
*201 _0006_
*202 _0007_
*203 _0008_
*204 _0009_
*205 _0010_
*206 _0011_
*207 _0012_
*208 _0013_
*209 _0015_
*210 _0017_
*211 _0019_
*212 _0021_
*213 _0023_
*214 _0025_
*215 _0027_
*216 _0029_
*217 _0031_
*218 _0032_
*219 _0033_
*220 _0034_
*221 _0035_
*222 _0036_
*223 _0037_
*224 _0038_
*225 _0039_
*226 _0040_
*227 _0041_
*228 _0042_
*229 _0043_
*230 _0044_
*231 _0045_
*232 _0046_
*233 _0047_
*234 _0048_
*235 _0049_
*236 _0050_
*237 _0051_
*238 _0052_
*239 _0053_
*240 _0054_
*241 _0055_
*242 _0056_
*243 _0057_
*244 _0058_
*245 _0059_
*246 _0060_
*247 _0061_
*248 _0062_
*249 _0063_
*250 _0064_
*251 _0065_
*252 _0066_
*253 _0067_
*254 _0068_
*255 _0069_
*256 _0070_
*257 _0071_
*258 _0072_
*259 _0073_
*260 _0074_
*261 _0075_
*262 _0076_
*263 _0077_
*264 _0078_
*265 _0079_
*266 _0080_
*267 _0081_
*268 _0082_
*269 _0083_
*270 _0084_
*271 _0085_
*272 _0086_
*273 _0087_
*274 _0088_
*275 _0089_
*276 _0090_
*277 _0091_
*278 _0092_
*279 _0093_
*280 _0094_
*281 _0095_
*282 _0096_
*283 _0097_
*284 _0098_
*285 _0099_
*286 _0100_
*287 _0101_
*288 _0102_
*289 _0103_
*290 _0104_
*291 _0105_
*292 _0106_
*293 _0107_
*294 _0108_
*295 _0109_
*296 _0110_
*297 _0111_
*298 _0112_
*299 _0113_
*300 _0114_
*301 _0115_
*302 _0116_
*303 _0117_
*304 _0118_
*305 _0119_
*306 _0120_
*307 _0121_
*308 _0122_
*309 _0123_
*310 _0124_
*311 _0125_
*312 _0126_
*313 _0127_
*314 _0128_
*315 _0129_
*316 _0130_
*317 _0131_
*318 _0132_
*319 _0133_
*320 _0134_
*321 _0135_
*322 _0136_
*323 _0137_
*324 _0138_
*325 _0139_
*326 _0140_
*327 _0141_
*328 _0142_
*329 _0143_
*330 _0144_
*331 _0145_
*332 _0146_
*333 _0147_
*334 _0148_
*335 _0149_
*336 _0150_
*337 _0151_
*338 _0152_
*339 _0153_
*340 _0154_
*341 _0155_
*342 _0156_
*343 _0157_
*344 _0158_
*345 _0159_
*346 _0160_
*347 _0161_
*348 _0162_
*349 _0163_
*350 _0164_
*351 _0165_
*352 _0166_
*353 _0167_
*354 _0168_
*355 _0169_
*356 _0170_
*357 _0171_
*358 _0172_
*359 _0173_
*360 _0174_
*361 _0175_
*362 _0176_
*363 _0177_
*364 _0178_
*365 _0179_
*366 _0180_
*367 _0181_
*368 _0182_
*369 _0183_
*370 _0184_
*371 _0185_
*372 _0186_
*373 _0187_
*374 _0188_
*375 _0189_
*376 _0190_
*377 _0191_
*378 _0192_
*379 _0193_
*380 _0194_
*381 _0195_
*382 _0196_
*383 _0197_
*384 _0198_
*385 _0199_
*386 _0200_
*387 _0201_
*388 _0202_
*389 _0203_
*390 _0204_
*391 _0205_
*392 _0206_
*393 _0207_
*394 _0208_
*395 _0209_
*396 _0210_
*397 _0211_
*398 _0212_
*399 _0213_
*400 _0214_
*401 _0215_
*402 _0216_
*403 _0217_
*404 _0218_
*405 _0219_
*406 _0220_
*407 _0221_
*408 _0222_
*409 _0223_
*410 _0224_
*411 _0225_
*412 _0226_
*413 _0227_
*414 _0228_
*415 _0229_
*416 _0230_
*417 _0231_
*418 _0232_
*419 _0233_
*420 _0234_
*421 _0235_
*422 _0236_
*423 _0237_
*424 _0238_
*425 _0239_
*426 _0240_
*427 _0241_
*428 _0242_
*429 _0243_
*430 _0244_
*431 _0245_
*432 _0246_
*433 _0247_
*434 _0248_
*435 _0249_
*436 _0250_
*437 _0251_
*438 _0252_
*439 _0253_
*440 _0254_
*441 _0255_
*442 _0256_
*443 _0257_
*444 _0258_
*445 _0259_
*446 _0260_
*447 _0261_
*448 _0262_
*449 _0263_
*450 _0264_
*451 _0265_
*452 _0266_
*453 _0267_
*454 _0268_
*455 _0269_
*456 _0270_
*457 _0271_
*458 _0272_
*459 _0273_
*460 _0274_
*461 _0275_
*462 _0276_
*463 _0277_
*464 _0278_
*465 _0279_
*466 _0280_
*467 _0281_
*468 _0282_
*469 _0283_
*470 _0284_
*471 _0285_
*472 _0286_
*473 _0287_
*474 _0288_
*475 _0289_
*476 _0290_
*477 _0291_
*478 _0292_
*479 _0293_
*480 _0294_
*481 _0295_
*482 _0296_
*483 _0297_
*484 _0298_
*485 _0299_
*486 _0300_
*487 _0301_
*488 _0302_
*489 _0303_
*490 _0304_
*491 _0305_
*492 _0306_
*493 _0307_
*494 _0308_
*495 _0309_
*496 _0310_
*497 _0311_
*498 _0312_
*499 _0313_
*500 _0314_
*501 _0315_
*502 _0316_
*503 _0317_
*504 _0318_
*505 _0319_
*506 _0320_
*507 _0321_
*508 _0322_
*509 _0323_
*510 _0324_
*511 _0325_
*512 _0326_
*513 _0327_
*514 _0328_
*515 _0329_
*516 _0330_
*517 _0331_
*518 _0332_
*519 _0333_
*520 _0334_
*521 _0335_
*522 _0336_
*523 _0337_
*524 _0338_
*525 _0339_
*526 _0340_
*527 _0341_
*528 _0342_
*529 _0343_
*530 _0344_
*531 _0345_
*532 _0346_
*533 _0347_
*534 _0348_
*535 _0349_
*536 _0350_
*537 _0351_
*538 _0352_
*539 _0353_
*540 _0354_
*541 _0355_
*542 _0356_
*543 _0357_
*544 _0358_
*545 _0359_
*546 _0360_
*547 _0361_
*548 _0362_
*549 _0363_
*550 _0364_
*551 _0365_
*552 _0366_
*553 _0367_
*554 _0368_
*555 _0369_
*556 _0370_
*557 _0371_
*558 _0372_
*559 _0373_
*560 _0374_
*561 _0375_
*562 _0376_
*563 _0377_
*564 _0378_
*565 _0379_
*566 _0380_
*567 _0381_
*568 _0382_
*569 _0383_
*570 _0384_
*571 _0385_
*572 _0386_
*573 _0387_
*574 _0388_
*575 _0389_
*576 _0390_
*577 _0391_
*578 _0392_
*579 _0393_
*580 _0394_
*581 _0395_
*582 _0396_
*583 _0397_
*584 _0398_
*585 _0399_
*586 _0400_
*587 _0401_
*588 _0402_
*589 _0403_
*590 _0404_
*591 _0405_
*592 _0406_
*593 _0407_
*594 _0408_
*595 _0409_
*596 _0410_
*597 _0411_
*598 _0412_
*599 _0413_
*600 _0414_
*601 _0415_
*602 _0416_
*603 _0417_
*604 _0418_
*605 _0419_
*606 _0420_
*607 _0421_
*608 _0422_
*609 _0423_
*610 _0424_
*611 _0425_
*612 _0426_
*613 _0427_
*614 _0428_
*615 _0429_
*616 _0430_
*617 _0431_
*618 _0432_
*619 _0433_
*620 _0434_
*621 _0435_
*622 _0436_
*623 _0437_
*624 _0438_
*625 _0439_
*626 _0440_
*627 _0441_
*628 _0442_
*629 _0443_
*630 _0444_
*631 _0445_
*632 _0446_
*633 _0447_
*634 _0448_
*635 _0449_
*636 _0450_
*637 _0451_
*638 _0452_
*639 _0453_
*640 _0454_
*641 _0455_
*642 _0456_
*643 _0457_
*644 _0458_
*645 _0459_
*646 _0460_
*647 _0461_
*648 _0462_
*649 _0463_
*650 _0464_
*651 _0465_
*652 _0466_
*653 _0467_
*654 _0468_
*655 _0469_
*656 _0470_
*657 _0471_
*658 _0472_
*659 _0473_
*660 _0474_
*661 _0475_
*662 _0476_
*663 _0477_
*664 _0478_
*665 _0479_
*666 _0480_
*667 _0481_
*668 _0482_
*669 _0483_
*670 _0484_
*671 _0485_
*672 _0486_
*673 _0487_
*674 _0488_
*675 _0489_
*676 _0490_
*677 _0491_
*678 _0492_
*679 _0493_
*680 _0494_
*681 _0495_
*682 _0496_
*683 _0497_
*684 _0498_
*685 _0499_
*686 _0500_
*687 _0501_
*688 _0502_
*689 _0503_
*690 _0504_
*691 _0505_
*692 _0506_
*693 _0507_
*694 _0508_
*695 _0509_
*696 _0510_
*697 _0511_
*698 _0512_
*699 _0513_
*700 _0514_
*701 _0515_
*702 _0516_
*703 _0517_
*704 _0518_
*705 _0519_
*706 _0520_
*707 _0521_
*708 _0522_
*709 _0523_
*710 _0524_
*711 _0525_
*712 _0526_
*713 _0527_
*714 _0528_
*715 _0529_
*716 _0530_
*717 _0531_
*718 _0532_
*719 _0533_
*720 _0534_
*721 _0535_
*722 _0536_
*723 _0537_
*724 _0538_
*725 _0539_
*726 _0540_
*727 _0541_
*728 _0542_
*729 _0543_
*730 _0544_
*731 _0545_
*732 _0546_
*733 _0547_
*734 _0548_
*735 _0549_
*736 _0550_
*737 _0551_
*738 _0552_
*739 _0553_
*740 _0554_
*741 _0555_
*742 _0556_
*743 _0557_
*744 _0558_
*745 _0559_
*746 _0560_
*747 _0561_
*748 _0562_
*749 _0563_
*750 _0564_
*751 _0565_
*752 _0566_
*753 _0567_
*754 _0568_
*755 _0569_
*756 _0570_
*757 _0571_
*758 _0572_
*759 _0573_
*760 _0574_
*761 _0575_
*762 _0576_
*763 _0577_
*764 _0578_
*765 _0579_
*766 _0580_
*767 _0581_
*768 _0582_
*769 _0583_
*770 _0584_
*771 _0585_
*772 _0586_
*773 _0587_
*774 _0588_
*775 _0589_
*776 _0590_
*777 _0591_
*778 _0592_
*779 _0593_
*780 _0594_
*781 _0595_
*782 _0596_
*783 _0597_
*784 _0598_
*785 _0599_
*786 _0600_
*787 _0601_
*788 _0602_
*789 _0603_
*790 _0604_
*791 _0605_
*792 _0606_
*793 _0607_
*794 _0608_
*795 _0609_
*796 _0610_
*797 _0611_
*798 _0612_
*799 _0613_
*800 _0614_
*801 _0615_
*802 _0616_
*803 _0617_
*804 _0618_
*805 _0619_
*806 _0620_
*807 _0621_
*808 _0622_
*809 _0623_
*810 _0624_
*811 _0625_
*812 _0626_
*813 _0627_
*814 _0628_
*815 _0629_
*816 _0630_
*817 _0631_
*818 _0632_
*819 _0633_
*820 _0634_
*821 _0635_
*822 _0636_
*823 _0637_
*824 _0638_
*825 _0639_
*826 _0640_
*827 _0641_
*828 _0642_
*829 _0643_
*830 _0644_
*831 _0645_
*832 _0646_
*833 _0647_
*834 _0648_
*835 _0649_
*836 _0650_
*837 _0651_
*838 _0652_
*839 _0653_
*840 _0654_
*841 _0655_
*842 _0656_
*843 _0657_
*844 _0658_
*845 _0659_
*846 _0660_
*847 _0661_
*848 _0662_
*849 _0663_
*850 _0664_
*851 _0665_
*852 _0666_
*853 _0667_
*854 _0668_
*855 _0669_
*856 _0670_
*857 _0671_
*858 _0672_
*859 _0673_
*860 _0674_
*861 _0675_
*862 _0676_
*863 _0677_
*864 _0678_
*865 _0679_
*866 _0680_
*867 _0681_
*868 _0682_
*869 _0683_
*870 _0684_
*871 _0685_
*872 _0686_
*873 _0687_
*874 _0688_
*875 _0689_
*876 _0690_
*877 _0691_
*878 _0692_
*879 _0693_
*880 _0694_
*881 _0695_
*882 _0696_
*883 _0697_
*884 _0698_
*885 _0699_
*886 _0700_
*887 _0701_
*888 _0702_
*889 _0703_
*890 _0704_
*891 _0705_
*892 _0706_
*893 _0707_
*894 _0708_
*895 _0709_
*896 _0710_
*897 _0711_
*898 _0712_
*899 _0713_
*900 _0714_
*901 _0715_
*902 _0716_
*903 _0717_
*904 _0718_
*905 _0719_
*906 _0720_
*907 _0721_
*908 _0722_
*909 _0723_
*910 _0724_
*911 _0725_
*912 _0726_
*913 _0727_
*914 _0728_
*915 _0729_
*916 _0730_
*917 _0731_
*918 _0732_
*919 _0733_
*920 _0734_
*921 _0735_
*922 _0736_
*923 _0737_
*924 _0738_
*925 _0739_
*926 _0740_
*927 _0741_
*928 _0742_
*929 _0743_
*930 _0744_
*931 _0745_
*932 _0746_
*933 _0747_
*934 _0748_
*935 _0749_
*936 _0750_
*937 _0751_
*938 _0752_
*939 _0753_
*940 _0754_
*941 _0755_
*942 _0756_
*943 _0757_
*944 _0758_
*945 _0759_
*946 _0760_
*947 _0761_
*948 _0762_
*949 _0763_
*950 _0764_
*951 _0765_
*952 _0766_
*953 _0767_
*954 _0768_
*955 _0769_
*956 _0770_
*957 _0771_
*958 _0772_
*959 _0773_
*960 _0774_
*961 _0775_
*962 _0776_
*963 _0777_
*964 _0778_
*965 _0779_
*966 _0780_
*967 _0781_
*968 _0782_
*969 _0783_
*970 _0784_
*971 _0785_
*972 _0786_
*973 _0787_
*974 _0788_
*975 _0789_
*976 _0790_
*977 _0791_
*978 _0792_
*979 _0793_
*980 _0794_
*981 _0795_
*982 _0796_
*983 _0797_
*984 _0798_
*985 _0799_
*986 _0800_
*987 _0801_
*988 _0802_
*989 _0803_
*990 _0804_
*991 _0805_
*992 _0806_
*993 _0807_
*994 _0808_
*995 _0809_
*996 _0810_
*997 _0811_
*998 _0812_
*999 _0813_
*1000 _0814_
*1001 _0815_
*1002 _0816_
*1003 _0817_
*1004 _0818_
*1005 _0819_
*1006 _0820_
*1007 _0821_
*1008 _0822_
*1009 _0823_
*1010 _0824_
*1011 _0825_
*1012 _0826_
*1013 _0827_
*1014 _0828_
*1015 _0829_
*1016 _0830_
*1017 _0831_
*1018 _0832_
*1019 _0833_
*1020 _0834_
*1021 _0835_
*1022 _0836_
*1023 _0837_
*1024 _0838_
*1025 _0839_
*1026 _0840_
*1027 _0841_
*1028 _0842_
*1029 _0843_
*1030 _0844_
*1031 _0845_
*1032 _0846_
*1033 _0847_
*1034 _0848_
*1035 _0849_
*1036 _0850_
*1037 _0851_
*1038 _0852_
*1039 _0853_
*1040 _0854_
*1041 _0855_
*1042 _0856_
*1043 _0857_
*1044 _0858_
*1045 _0859_
*1046 _0860_
*1047 _0861_
*1048 _0862_
*1049 _0863_
*1050 _0864_
*1051 _0865_
*1052 _0866_
*1053 _0867_
*1054 _0868_
*1055 _0869_
*1056 _0870_
*1057 _0871_
*1058 _0872_
*1059 _0873_
*1060 _0874_
*1061 _0875_
*1062 _0876_
*1063 _0877_
*1064 _0878_
*1065 _0879_
*1066 _0880_
*1067 _0881_
*1068 _0882_
*1069 _0883_
*1070 _0884_
*1071 _0885_
*1072 _0886_
*1073 _0887_
*1074 _0888_
*1075 _0889_
*1076 _0890_
*1077 _0891_
*1078 _0892_
*1079 _0893_
*1080 _0894_
*1081 _0895_
*1082 _0896_
*1083 _0897_
*1084 _0898_
*1085 _0899_
*1086 _0900_
*1087 _0901_
*1088 _0902_
*1089 _0903_
*1090 _0904_
*1091 _0905_
*1092 _0906_
*1093 _0907_
*1094 _0908_
*1095 _0909_
*1096 _0910_
*1097 _0911_
*1098 _0912_
*1099 _0913_
*1100 _0914_
*1101 _0915_
*1102 _0916_
*1103 _0917_
*1104 _0918_
*1105 _0919_
*1106 _0920_
*1107 _0921_
*1108 _0922_
*1109 _0923_
*1110 _0924_
*1111 _0925_
*1112 _0926_
*1113 _0927_
*1114 _0928_
*1115 _0929_
*1116 _0930_
*1117 _0931_
*1118 _0932_
*1119 _0933_
*1120 _0934_
*1121 _0935_
*1122 _0936_
*1123 _0937_
*1124 _0938_
*1125 _0939_
*1126 _0940_
*1127 _0941_
*1128 _0942_
*1129 _0943_
*1130 _0944_
*1131 _0945_
*1132 _0946_
*1133 _0947_
*1134 _0948_
*1135 _0949_
*1136 _0950_
*1137 _0951_
*1138 _0952_
*1139 _0953_
*1140 _0954_
*1141 _0955_
*1142 _0956_
*1143 _0957_
*1144 _0958_
*1145 _0959_
*1146 _0960_
*1147 _0961_
*1148 _0962_
*1149 _0963_
*1150 _0964_
*1151 _0965_
*1152 _0966_
*1153 _0967_
*1154 _0968_
*1155 _0969_
*1156 _0970_
*1157 _0971_
*1158 _0972_
*1159 _0973_
*1160 _0974_
*1161 _0975_
*1162 _0976_
*1163 _0977_
*1164 _0978_
*1165 _0979_
*1166 _0980_
*1167 _0981_
*1168 _0982_
*1169 _0983_
*1170 _0984_
*1171 _0985_
*1172 _0986_
*1173 _0987_
*1174 _0988_
*1175 _0989_
*1176 _0990_
*1177 _0991_
*1178 _0992_
*1179 _0993_
*1180 _0994_
*1181 _0995_
*1182 _0996_
*1183 _0997_
*1184 _0998_
*1185 _0999_
*1186 _1000_
*1187 _1001_
*1188 _1002_
*1189 _1003_
*1190 _1004_
*1191 _1005_
*1192 _1006_
*1193 _1007_
*1194 _1008_
*1195 _1009_
*1196 _1010_
*1197 _1011_
*1198 _1012_
*1199 _1013_
*1200 _1014_
*1201 _1015_
*1202 _1016_
*1203 _1017_
*1204 _1018_
*1205 _1019_
*1206 _1020_
*1207 _1021_
*1208 _1022_
*1209 _1023_
*1210 _1024_
*1211 _1025_
*1212 _1026_
*1213 _1027_
*1214 _1028_
*1215 _1029_
*1216 _1030_
*1217 _1031_
*1218 _1032_
*1219 _1033_
*1220 _1034_
*1221 _1035_
*1222 _1036_
*1223 _1037_
*1224 _1038_
*1225 _1039_
*1226 _1040_
*1227 _1041_
*1228 _1042_
*1229 _1043_
*1230 _1044_
*1231 _1045_
*1232 _1046_
*1233 _1047_
*1234 _1048_
*1235 _1049_
*1236 _1050_
*1237 _1051_
*1238 _1052_
*1239 _1053_
*1240 _1054_
*1241 _1055_
*1242 _1056_
*1243 _1057_
*1244 _1058_
*1245 _1059_
*1246 _1060_
*1247 _1061_
*1248 _1062_
*1249 _1063_
*1250 _1064_
*1251 _1065_
*1252 _1066_
*1253 _1067_
*1254 _1068_
*1255 _1069_
*1256 _1070_
*1257 _1071_
*1258 _1072_
*1259 _1073_
*1260 _1074_
*1261 _1075_
*1262 _1076_
*1263 _1077_
*1264 _1078_
*1265 _1079_
*1266 _1080_
*1267 _1081_
*1268 _1082_
*1269 _1083_
*1270 _1084_
*1271 _1085_
*1272 _1086_
*1273 _1087_
*1274 _1088_
*1275 _1089_
*1276 _1090_
*1277 _1091_
*1278 _1092_
*1279 _1093_
*1280 _1094_
*1281 _1095_
*1282 _1096_
*1283 _1097_
*1284 _1098_
*1285 _1099_
*1286 _1100_
*1287 _1101_
*1288 _1102_
*1289 _1103_
*1290 _1104_
*1291 _1105_
*1292 _1106_
*1293 _1107_
*1294 _1108_
*1295 _1109_
*1296 _1110_
*1297 _1111_
*1298 _1112_
*1299 _1113_
*1300 _1114_
*1301 _1115_
*1302 _1116_
*1303 _1117_
*1304 _1118_
*1305 _1119_
*1306 _1120_
*1307 _1121_
*1308 _1122_
*1309 _1123_
*1310 _1124_
*1311 _1125_
*1312 _1126_
*1313 _1127_
*1314 _1128_
*1315 _1129_
*1316 _1130_
*1317 _1131_
*1318 _1132_
*1319 _1133_
*1320 _1134_
*1321 _1135_
*1322 _1136_
*1323 _1137_
*1324 _1138_
*1325 _1139_
*1326 _1140_
*1327 _1141_
*1328 _1142_
*1329 _1143_
*1330 _1144_
*1331 _1145_
*1332 _1146_
*1333 _1147_
*1334 _1148_
*1335 _1149_
*1336 _1150_
*1337 _1151_
*1338 _1152_
*1339 _1153_
*1340 _1154_
*1341 _1155_
*1342 _1156_
*1343 _1157_
*1344 _1158_
*1345 _1159_
*1346 _1160_
*1347 _1161_
*1348 _1162_
*1349 _1163_
*1350 _1164_
*1351 _1165_
*1352 _1166_
*1353 _1167_
*1354 _1168_
*1355 _1169_
*1356 _1170_
*1357 _1171_
*1358 _1172_
*1359 _1173_
*1360 _1174_
*1361 _1175_
*1362 _1176_
*1363 _1177_
*1364 _1178_
*1365 _1179_
*1366 _1180_
*1367 _1181_
*1368 _1182_
*1369 _1183_
*1370 _1184_
*1371 _1185_
*1372 _1186_
*1373 _1187_
*1374 _1188_
*1375 _1189_
*1376 _1190_
*1377 _1191_
*1378 _1192_
*1379 _1193_
*1380 _1194_
*1381 _1195_
*1382 _1196_
*1383 _1197_
*1384 _1198_
*1385 _1199_
*1386 _1200_
*1387 _1201_
*1388 _1202_
*1389 _1203_
*1390 _1204_
*1391 _1205_
*1392 _1206_
*1393 _1207_
*1394 _1208_
*1395 _1209_
*1396 _1210_
*1397 _1211_
*1398 _1212_
*1399 _1213_
*1400 _1214_
*1401 _1215_
*1402 _1216_
*1403 _1217_
*1404 _1218_
*1405 _1219_
*1406 _1220_
*1407 _1221_
*1408 _1222_
*1409 _1223_
*1410 _1224_
*1411 _1225_
*1412 _1226_
*1413 _1227_
*1414 _1228_
*1415 _1229_
*1416 _1230_
*1417 _1231_
*1418 _1232_
*1419 _1233_
*1420 _1234_
*1421 _1235_
*1422 _1236_
*1423 _1237_
*1424 _1238_
*1425 _1239_
*1426 _1240_
*1427 _1241_
*1428 _1242_
*1429 _1243_
*1430 _1244_
*1431 _1245_
*1432 _1246_
*1433 _1247_
*1434 _1248_
*1435 _1249_
*1436 _1250_
*1437 _1251_
*1438 _1252_
*1439 _1253_
*1440 _1254_
*1441 _1255_
*1442 _1256_
*1443 _1257_
*1444 _1258_
*1445 _1259_
*1446 _1260_
*1447 _1261_
*1448 _1262_
*1449 _1263_
*1450 _1264_
*1451 _1265_
*1452 _1266_
*1453 _1267_
*1454 _1268_
*1455 _1269_
*1456 _1270_
*1457 _1271_
*1458 _1272_
*1459 _1273_
*1460 _1274_
*1461 _1275_
*1462 _1276_
*1463 _1277_
*1464 _1278_
*1465 _1279_
*1466 _1280_
*1467 _1281_
*1468 _1282_
*1469 _1283_
*1470 _1284_
*1471 _1285_
*1472 _1286_
*1473 _1287_
*1474 _1288_
*1475 _1289_
*1476 _1290_
*1477 _1291_
*1478 _1292_
*1479 _1293_
*1480 _1294_
*1481 _1295_
*1482 _1296_
*1483 _1297_
*1484 _1298_
*1485 _1299_
*1486 _1300_
*1487 _1301_
*1488 _1302_
*1489 _1303_
*1490 _1304_
*1491 _1305_
*1492 _1306_
*1493 _1307_
*1494 _1308_
*1495 _1309_
*1496 _1310_
*1497 _1311_
*1498 _1312_
*1499 _1313_
*1500 _1314_
*1501 _1315_
*1502 _1316_
*1503 _1317_
*1504 _1318_
*1505 _1319_
*1506 _1320_
*1507 _1321_
*1508 _1322_
*1509 _1323_
*1510 _1324_
*1511 _1325_
*1512 _1326_
*1513 _1327_
*1514 _1328_
*1515 _1329_
*1516 _1330_
*1517 _1331_
*1518 _1332_
*1519 _1333_
*1520 _1334_
*1521 _1335_
*1522 _1336_
*1523 _1337_
*1524 _1338_
*1525 _1339_
*1526 _1340_
*1527 _1341_
*1528 _1342_
*1529 _1343_
*1530 _1344_
*1531 _1345_
*1532 _1346_
*1533 _1347_
*1534 _1348_
*1535 _1349_
*1536 _1350_
*1537 _1351_
*1538 _1352_
*1539 _1353_
*1540 _1354_
*1541 _1355_
*1542 _1356_
*1543 _1357_
*1544 _1358_
*1545 _1359_
*1546 _1360_
*1547 _1361_
*1548 _1362_
*1549 _1363_
*1550 _1364_
*1551 _1365_
*1552 _1366_
*1553 _1367_
*1554 _1368_
*1555 _1369_
*1556 _1370_
*1557 _1371_
*1558 _1372_
*1559 _1373_
*1560 _1374_
*1561 _1375_
*1562 _1376_
*1563 _1377_
*1564 _1378_
*1565 _1379_
*1566 _1380_
*1567 _1381_
*1568 _1382_
*1569 _1383_
*1570 _1384_
*1571 _1385_
*1572 _1386_
*1573 _1387_
*1574 _1388_
*1575 _1389_
*1576 _1390_
*1577 _1391_
*1578 _1392_
*1579 _1393_
*1580 _1394_
*1581 _1395_
*1582 _1396_
*1583 _1397_
*1584 _1398_
*1585 _1399_
*1586 _1400_
*1587 _1401_
*1588 _1402_
*1589 _1403_
*1590 _1404_
*1591 _1405_
*1592 _1406_
*1593 _1407_
*1594 _1408_
*1595 _1409_
*1596 _1410_
*1597 _1411_
*1598 _1412_
*1599 _1413_
*1600 _1414_
*1601 _1415_
*1602 _1416_
*1603 _1417_
*1604 _1418_
*1605 _1419_
*1606 _1420_
*1607 _1421_
*1608 _1422_
*1609 _1423_
*1610 _1424_
*1611 _1425_
*1612 _1426_
*1613 _1427_
*1614 _1428_
*1615 _1429_
*1616 _1430_
*1617 _1431_
*1618 _1432_
*1619 _1433_
*1620 _1434_
*1621 _1435_
*1622 _1436_
*1623 _1437_
*1624 _1438_
*1625 _1439_
*1626 _1440_
*1627 _1441_
*1628 _1442_
*1629 _1443_
*1630 _1444_
*1631 _1445_
*1632 _1446_
*1633 _1447_
*1634 _1448_
*1635 _1449_
*1636 _1450_
*1637 _1451_
*1638 _1452_
*1639 _1453_
*1640 _1454_
*1641 _1455_
*1642 _1456_
*1643 _1457_
*1644 _1458_
*1645 _1459_
*1646 _1460_
*1647 _1461_
*1648 _1462_
*1649 _1463_
*1650 _1464_
*1651 _1465_
*1652 _1466_
*1653 _1467_
*1654 _1468_
*1655 _1469_
*1656 _1470_
*1657 _1471_
*1658 _1472_
*1659 _1473_
*1660 _1474_
*1661 _1475_
*1662 _1476_
*1663 _1477_
*1664 _1478_
*1665 _1479_
*1666 _1480_
*1667 _1481_
*1668 _1482_
*1669 _1483_
*1670 _1484_
*1671 _1485_
*1672 _1486_
*1673 _1487_
*1674 _1488_
*1675 _1489_
*1676 _1490_
*1677 _1491_
*1678 _1492_
*1679 _1493_
*1680 _1494_
*1681 _1495_
*1682 _1496_
*1683 _1497_
*1684 _1498_
*1685 _1499_
*1686 _1500_
*1687 _1501_
*1688 _1502_
*1689 _1503_
*1690 _1504_
*1691 _1505_
*1692 _1506_
*1693 _1507_
*1694 _1508_
*1695 _1509_
*1696 _1510_
*1697 _1511_
*1698 _1512_
*1699 _1513_
*1700 _1514_
*1701 _1515_
*1702 _1516_
*1703 _1517_
*1704 _1518_
*1705 _1519_
*1706 _1520_
*1707 _1521_
*1708 _1522_
*1709 _1523_
*1710 _1524_
*1711 _1525_
*1712 _1526_
*1713 _1527_
*1714 _1528_
*1715 _1529_
*1716 _1530_
*1717 _1531_
*1718 _1532_
*1719 _1533_
*1720 _1534_
*1721 _1535_
*1722 _1536_
*1723 _1537_
*1724 _1538_
*1725 _1539_
*1726 _1540_
*1727 _1541_
*1728 _1542_
*1729 _1543_
*1730 _1544_
*1731 _1545_
*1732 _1546_
*1733 _1547_
*1734 _1548_
*1735 _1549_
*1736 _1550_
*1737 _1551_
*1738 _1552_
*1739 _1553_
*1740 _1554_
*1741 _1555_
*1742 _1556_
*1743 _1557_
*1744 _1558_
*1745 _1559_
*1746 _1560_
*1747 _1561_
*1748 _1562_
*1749 _1563_
*1750 _1564_
*1751 _1565_
*1752 _1566_
*1753 _1567_
*1754 _1568_
*1755 _1569_
*1756 _1570_
*1757 _1571_
*1758 _1572_
*1759 _1573_
*1760 _1574_
*1761 _1575_
*1762 _1576_
*1763 _1577_
*1764 _1578_
*1765 _1579_
*1766 _1580_
*1767 _1581_
*1768 _1582_
*1769 _1583_
*1770 _1584_
*1771 _1585_
*1772 _1586_
*1773 _1587_
*1774 _1588_
*1775 _1589_
*1776 _1590_
*1777 _1591_
*1778 _1592_
*1779 _1593_
*1780 _1594_
*1781 _1595_
*1782 _1596_
*1783 _1597_
*1784 _1598_
*1785 _1599_
*1786 _1600_
*1787 _1601_
*1788 _1602_
*1789 _1603_
*1790 _1604_
*1791 _1605_
*1792 _1606_
*1793 _1607_
*1794 _1608_
*1795 _1609_
*1796 _1610_
*1797 _1611_
*1798 _1612_
*1799 _1613_
*1800 _1614_
*1801 _1615_
*1802 _1616_
*1803 _1617_
*1804 _1618_
*1805 _1619_
*1806 _1620_
*1807 _1621_
*1808 _1622_
*1809 _1623_
*1810 _1624_
*1811 _1625_
*1812 _1626_
*1813 _1627_
*1814 _1628_
*1815 _1629_
*1816 _1630_
*1817 _1631_
*1818 _1632_
*1819 _1633_
*1820 _1634_
*1821 _1635_
*1822 _1636_
*1823 _1637_
*1824 _1638_
*1825 _1639_
*1826 _1640_
*1827 _1641_
*1828 _1642_
*1829 _1643_
*1830 _1644_
*1831 _1645_
*1832 _1646_
*1833 _1647_
*1834 _1648_
*1835 _1649_
*1836 _1650_
*1837 _1651_
*1838 _1652_
*1839 _1653_
*1840 _1654_
*1841 _1655_
*1842 _1656_
*1843 _1657_
*1844 _1658_
*1845 _1659_
*1846 _1660_
*1847 _1661_
*1848 _1662_
*1849 _1663_
*1850 _1664_
*1851 _1665_
*1852 _1666_
*1853 _1667_
*1854 _1668_
*1855 _1669_
*1856 _1670_
*1857 _1671_
*1858 _1672_
*1859 _1673_
*1860 _1674_
*1861 _1675_
*1862 _1676_
*1863 _1677_
*1864 _1678_
*1865 _1679_
*1866 _1680_
*1867 _1681_
*1868 _1682_
*1869 _1683_
*1870 _1684_
*1871 _1685_
*1872 _1686_
*1873 _1687_
*1874 _1688_
*1875 _1689_
*1876 _1690_
*1877 _1691_
*1878 _1692_
*1879 _1693_
*1880 _1694_
*1881 _1695_
*1882 _1696_
*1883 _1697_
*1884 _1698_
*1885 _1699_
*1886 _1700_
*1887 _1701_
*1888 _1702_
*1889 _1703_
*1890 _1704_
*1891 _1705_
*1892 _1706_
*1893 _1707_
*1894 _1708_
*1895 clknet_0_csclk
*1896 clknet_0_hk_spi_sck
*1897 clknet_0_wb_clk_i
*1898 clknet_0_wbbd_sck
*1899 clknet_1_0__leaf_csclk
*1900 clknet_1_0__leaf_wbbd_sck
*1901 clknet_1_1__leaf_csclk
*1902 clknet_1_1__leaf_wbbd_sck
*1903 clknet_2_0__leaf_hk_spi_sck
*1904 clknet_2_1__leaf_hk_spi_sck
*1905 clknet_2_2__leaf_hk_spi_sck
*1906 clknet_2_3__leaf_hk_spi_sck
*1907 clknet_3_0__leaf_wb_clk_i
*1908 clknet_3_1__leaf_wb_clk_i
*1909 clknet_3_2__leaf_wb_clk_i
*1910 clknet_3_3__leaf_wb_clk_i
*1911 clknet_3_4__leaf_wb_clk_i
*1912 clknet_3_5__leaf_wb_clk_i
*1913 clknet_3_6__leaf_wb_clk_i
*1914 clknet_3_7__leaf_wb_clk_i
*1915 csclk
*1916 hkspi\.SDO
*1917 hkspi\.addr\[0\]
*1918 hkspi\.addr\[1\]
*1919 hkspi\.addr\[2\]
*1920 hkspi\.addr\[3\]
*1921 hkspi\.addr\[4\]
*1922 hkspi\.addr\[5\]
*1923 hkspi\.addr\[6\]
*1924 hkspi\.addr\[7\]
*1925 hkspi\.count\[0\]
*1926 hkspi\.count\[1\]
*1927 hkspi\.count\[2\]
*1928 hkspi\.fixed\[0\]
*1929 hkspi\.fixed\[1\]
*1930 hkspi\.fixed\[2\]
*1931 hkspi\.ldata\[0\]
*1932 hkspi\.ldata\[1\]
*1933 hkspi\.ldata\[2\]
*1934 hkspi\.ldata\[3\]
*1935 hkspi\.ldata\[4\]
*1936 hkspi\.ldata\[5\]
*1937 hkspi\.ldata\[6\]
*1938 hkspi\.odata\[1\]
*1939 hkspi\.odata\[2\]
*1940 hkspi\.odata\[3\]
*1941 hkspi\.odata\[4\]
*1942 hkspi\.odata\[5\]
*1943 hkspi\.odata\[6\]
*1944 hkspi\.pass_thru_mgmt
*1945 hkspi\.pass_thru_mgmt_delay
*1946 hkspi\.pre_pass_thru_mgmt
*1947 hkspi\.pre_pass_thru_user
*1948 hkspi\.rdstb
*1949 hkspi\.readmode
*1950 hkspi\.state\[0\]
*1951 hkspi\.state\[2\]
*1952 hkspi\.state\[3\]
*1953 hkspi\.state\[4\]
*1954 hkspi\.writemode
*1955 hkspi\.wrstb
*1956 hkspi_disable
*1957 net1
*1958 net10
*1959 net100
*1960 net101
*1961 net102
*1962 net103
*1963 net104
*1964 net105
*1965 net106
*1966 net107
*1967 net108
*1968 net109
*1969 net11
*1970 net110
*1971 net111
*1972 net112
*1973 net113
*1974 net114
*1975 net115
*1976 net116
*1977 net117
*1978 net118
*1979 net119
*1980 net12
*1981 net120
*1982 net121
*1983 net122
*1984 net123
*1985 net124
*1986 net125
*1987 net126
*1988 net127
*1989 net128
*1990 net129
*1991 net13
*1992 net130
*1993 net131
*1994 net132
*1995 net133
*1996 net134
*1997 net135
*1998 net136
*1999 net137
*2000 net138
*2001 net139
*2002 net14
*2003 net140
*2004 net141
*2005 net142
*2006 net143
*2007 net144
*2008 net145
*2009 net146
*2010 net147
*2011 net148
*2012 net149
*2013 net15
*2014 net150
*2015 net151
*2016 net152
*2017 net153
*2018 net154
*2019 net155
*2020 net156
*2021 net157
*2022 net158
*2023 net159
*2024 net16
*2025 net160
*2026 net161
*2027 net162
*2028 net163
*2029 net164
*2030 net165
*2031 net166
*2032 net167
*2033 net168
*2034 net169
*2035 net17
*2036 net170
*2037 net171
*2038 net172
*2039 net173
*2040 net174
*2041 net175
*2042 net176
*2043 net177
*2044 net178
*2045 net179
*2046 net18
*2047 net180
*2048 net181
*2049 net182
*2050 net183
*2051 net184
*2052 net185
*2053 net186
*2054 net187
*2055 net188
*2056 net189
*2057 net19
*2058 net190
*2059 net191
*2060 net192
*2061 net193
*2062 net194
*2063 net195
*2064 net196
*2065 net197
*2066 net198
*2067 net199
*2068 net2
*2069 net20
*2070 net200
*2071 net201
*2072 net202
*2073 net203
*2074 net204
*2075 net205
*2076 net206
*2077 net207
*2078 net208
*2079 net209
*2080 net21
*2081 net210
*2082 net211
*2083 net212
*2084 net213
*2085 net214
*2086 net215
*2087 net216
*2088 net217
*2089 net218
*2090 net219
*2091 net22
*2092 net220
*2093 net221
*2094 net222
*2095 net223
*2096 net224
*2097 net225
*2098 net226
*2099 net227
*2100 net228
*2101 net229
*2102 net23
*2103 net230
*2104 net231
*2105 net232
*2106 net233
*2107 net234
*2108 net235
*2109 net236
*2110 net237
*2111 net238
*2112 net239
*2113 net24
*2114 net240
*2115 net241
*2116 net242
*2117 net243
*2118 net244
*2119 net245
*2120 net246
*2121 net247
*2122 net248
*2123 net249
*2124 net25
*2125 net250
*2126 net251
*2127 net252
*2128 net253
*2129 net254
*2130 net255
*2131 net256
*2132 net257
*2133 net258
*2134 net259
*2135 net26
*2136 net260
*2137 net261
*2138 net262
*2139 net263
*2140 net264
*2141 net265
*2142 net266
*2143 net267
*2144 net268
*2145 net269
*2146 net27
*2147 net270
*2148 net271
*2149 net272
*2150 net273
*2151 net274
*2152 net275
*2153 net276
*2154 net277
*2155 net278
*2156 net279
*2157 net28
*2158 net280
*2159 net281
*2160 net282
*2161 net283
*2162 net284
*2163 net285
*2164 net286
*2165 net287
*2166 net288
*2167 net289
*2168 net29
*2169 net290
*2170 net291
*2171 net292
*2172 net293
*2173 net294
*2174 net295
*2175 net296
*2176 net297
*2177 net298
*2178 net299
*2179 net3
*2180 net30
*2181 net300
*2182 net301
*2183 net302
*2184 net303
*2185 net304
*2186 net305
*2187 net306
*2188 net307
*2189 net308
*2190 net309
*2191 net31
*2192 net310
*2193 net311
*2194 net312
*2195 net313
*2196 net314
*2197 net315
*2198 net316
*2199 net317
*2200 net318
*2201 net319
*2202 net32
*2203 net320
*2204 net321
*2205 net322