*SPEF "ieee 1481-1999"
*DESIGN "mgmt_protect"
*DATE "20:03:06 Monday June 16, 2025"
*VENDOR "The OpenROAD Project"
*PROGRAM "OpenROAD"
*VERSION "edf00dff99f6c40d67a30c0e22a8191c5d2ed9d6"
*DESIGN_FLOW "NAME_SCOPE LOCAL" "PIN_CAP NONE"
*DIVIDER /
*DELIMITER :
*BUS_DELIMITER []
*T_UNIT 1 NS
*C_UNIT 1 PF
*R_UNIT 1 OHM
*L_UNIT 1 HENRY

*NAME_MAP
*1 frigate_HCLK
*2 frigate_HRESETn
*3 mprj_AHB_Ena
*4 mprj_HADDR_core[0]
*5 mprj_HADDR_core[10]
*6 mprj_HADDR_core[11]
*7 mprj_HADDR_core[12]
*8 mprj_HADDR_core[13]
*9 mprj_HADDR_core[14]
*10 mprj_HADDR_core[15]
*11 mprj_HADDR_core[16]
*12 mprj_HADDR_core[17]
*13 mprj_HADDR_core[18]
*14 mprj_HADDR_core[19]
*15 mprj_HADDR_core[1]
*16 mprj_HADDR_core[20]
*17 mprj_HADDR_core[21]
*18 mprj_HADDR_core[22]
*19 mprj_HADDR_core[23]
*20 mprj_HADDR_core[24]
*21 mprj_HADDR_core[25]
*22 mprj_HADDR_core[26]
*23 mprj_HADDR_core[27]
*24 mprj_HADDR_core[28]
*25 mprj_HADDR_core[29]
*26 mprj_HADDR_core[2]
*27 mprj_HADDR_core[30]
*28 mprj_HADDR_core[31]
*29 mprj_HADDR_core[3]
*30 mprj_HADDR_core[4]
*31 mprj_HADDR_core[5]
*32 mprj_HADDR_core[6]
*33 mprj_HADDR_core[7]
*34 mprj_HADDR_core[8]
*35 mprj_HADDR_core[9]
*36 mprj_HADDR_user[0]
*37 mprj_HADDR_user[10]
*38 mprj_HADDR_user[11]
*39 mprj_HADDR_user[12]
*40 mprj_HADDR_user[13]
*41 mprj_HADDR_user[14]
*42 mprj_HADDR_user[15]
*43 mprj_HADDR_user[16]
*44 mprj_HADDR_user[17]
*45 mprj_HADDR_user[18]
*46 mprj_HADDR_user[19]
*47 mprj_HADDR_user[1]
*48 mprj_HADDR_user[20]
*49 mprj_HADDR_user[21]
*50 mprj_HADDR_user[22]
*51 mprj_HADDR_user[23]
*52 mprj_HADDR_user[24]
*53 mprj_HADDR_user[25]
*54 mprj_HADDR_user[26]
*55 mprj_HADDR_user[27]
*56 mprj_HADDR_user[28]
*57 mprj_HADDR_user[29]
*58 mprj_HADDR_user[2]
*59 mprj_HADDR_user[30]
*60 mprj_HADDR_user[31]
*61 mprj_HADDR_user[3]
*62 mprj_HADDR_user[4]
*63 mprj_HADDR_user[5]
*64 mprj_HADDR_user[6]
*65 mprj_HADDR_user[7]
*66 mprj_HADDR_user[8]
*67 mprj_HADDR_user[9]
*68 mprj_HRDATA_core[0]
*69 mprj_HRDATA_core[10]
*70 mprj_HRDATA_core[11]
*71 mprj_HRDATA_core[12]
*72 mprj_HRDATA_core[13]
*73 mprj_HRDATA_core[14]
*74 mprj_HRDATA_core[15]
*75 mprj_HRDATA_core[16]
*76 mprj_HRDATA_core[17]
*77 mprj_HRDATA_core[18]
*78 mprj_HRDATA_core[19]
*79 mprj_HRDATA_core[1]
*80 mprj_HRDATA_core[20]
*81 mprj_HRDATA_core[21]
*82 mprj_HRDATA_core[22]
*83 mprj_HRDATA_core[23]
*84 mprj_HRDATA_core[24]
*85 mprj_HRDATA_core[25]
*86 mprj_HRDATA_core[26]
*87 mprj_HRDATA_core[27]
*88 mprj_HRDATA_core[28]
*89 mprj_HRDATA_core[29]
*90 mprj_HRDATA_core[2]
*91 mprj_HRDATA_core[30]
*92 mprj_HRDATA_core[31]
*93 mprj_HRDATA_core[3]
*94 mprj_HRDATA_core[4]
*95 mprj_HRDATA_core[5]
*96 mprj_HRDATA_core[6]
*97 mprj_HRDATA_core[7]
*98 mprj_HRDATA_core[8]
*99 mprj_HRDATA_core[9]
*100 mprj_HRDATA_user[0]
*101 mprj_HRDATA_user[10]
*102 mprj_HRDATA_user[11]
*103 mprj_HRDATA_user[12]
*104 mprj_HRDATA_user[13]
*105 mprj_HRDATA_user[14]
*106 mprj_HRDATA_user[15]
*107 mprj_HRDATA_user[16]
*108 mprj_HRDATA_user[17]
*109 mprj_HRDATA_user[18]
*110 mprj_HRDATA_user[19]
*111 mprj_HRDATA_user[1]
*112 mprj_HRDATA_user[20]
*113 mprj_HRDATA_user[21]
*114 mprj_HRDATA_user[22]
*115 mprj_HRDATA_user[23]
*116 mprj_HRDATA_user[24]
*117 mprj_HRDATA_user[25]
*118 mprj_HRDATA_user[26]
*119 mprj_HRDATA_user[27]
*120 mprj_HRDATA_user[28]
*121 mprj_HRDATA_user[29]
*122 mprj_HRDATA_user[2]
*123 mprj_HRDATA_user[30]
*124 mprj_HRDATA_user[31]
*125 mprj_HRDATA_user[3]
*126 mprj_HRDATA_user[4]
*127 mprj_HRDATA_user[5]
*128 mprj_HRDATA_user[6]
*129 mprj_HRDATA_user[7]
*130 mprj_HRDATA_user[8]
*131 mprj_HRDATA_user[9]
*132 mprj_HREADYOUT_core
*133 mprj_HREADYOUT_user
*134 mprj_HREADY_core
*135 mprj_HREADY_user
*136 mprj_HSEL_core
*137 mprj_HSEL_user
*138 mprj_HSIZE_core[0]
*139 mprj_HSIZE_core[1]
*140 mprj_HSIZE_core[2]
*141 mprj_HSIZE_user[0]
*142 mprj_HSIZE_user[1]
*143 mprj_HSIZE_user[2]
*144 mprj_HTRANS_core[0]
*145 mprj_HTRANS_core[1]
*146 mprj_HTRANS_user[0]
*147 mprj_HTRANS_user[1]
*148 mprj_HWDATA_core[0]
*149 mprj_HWDATA_core[10]
*150 mprj_HWDATA_core[11]
*151 mprj_HWDATA_core[12]
*152 mprj_HWDATA_core[13]
*153 mprj_HWDATA_core[14]
*154 mprj_HWDATA_core[15]
*155 mprj_HWDATA_core[16]
*156 mprj_HWDATA_core[17]
*157 mprj_HWDATA_core[18]
*158 mprj_HWDATA_core[19]
*159 mprj_HWDATA_core[1]
*160 mprj_HWDATA_core[20]
*161 mprj_HWDATA_core[21]
*162 mprj_HWDATA_core[22]
*163 mprj_HWDATA_core[23]
*164 mprj_HWDATA_core[24]
*165 mprj_HWDATA_core[25]
*166 mprj_HWDATA_core[26]
*167 mprj_HWDATA_core[27]
*168 mprj_HWDATA_core[28]
*169 mprj_HWDATA_core[29]
*170 mprj_HWDATA_core[2]
*171 mprj_HWDATA_core[30]
*172 mprj_HWDATA_core[31]
*173 mprj_HWDATA_core[3]
*174 mprj_HWDATA_core[4]
*175 mprj_HWDATA_core[5]
*176 mprj_HWDATA_core[6]
*177 mprj_HWDATA_core[7]
*178 mprj_HWDATA_core[8]
*179 mprj_HWDATA_core[9]
*180 mprj_HWDATA_user[0]
*181 mprj_HWDATA_user[10]
*182 mprj_HWDATA_user[11]
*183 mprj_HWDATA_user[12]
*184 mprj_HWDATA_user[13]
*185 mprj_HWDATA_user[14]
*186 mprj_HWDATA_user[15]
*187 mprj_HWDATA_user[16]
*188 mprj_HWDATA_user[17]
*189 mprj_HWDATA_user[18]
*190 mprj_HWDATA_user[19]
*191 mprj_HWDATA_user[1]
*192 mprj_HWDATA_user[20]
*193 mprj_HWDATA_user[21]
*194 mprj_HWDATA_user[22]
*195 mprj_HWDATA_user[23]
*196 mprj_HWDATA_user[24]
*197 mprj_HWDATA_user[25]
*198 mprj_HWDATA_user[26]
*199 mprj_HWDATA_user[27]
*200 mprj_HWDATA_user[28]
*201 mprj_HWDATA_user[29]
*202 mprj_HWDATA_user[2]
*203 mprj_HWDATA_user[30]
*204 mprj_HWDATA_user[31]
*205 mprj_HWDATA_user[3]
*206 mprj_HWDATA_user[4]
*207 mprj_HWDATA_user[5]
*208 mprj_HWDATA_user[6]
*209 mprj_HWDATA_user[7]
*210 mprj_HWDATA_user[8]
*211 mprj_HWDATA_user[9]
*212 mprj_HWRITE_core
*213 mprj_HWRITE_user
*214 user_HCLK
*215 user_HRESETn
*216 user_irq[0]
*217 user_irq[10]
*218 user_irq[11]
*219 user_irq[12]
*220 user_irq[13]
*221 user_irq[14]
*222 user_irq[15]
*223 user_irq[1]
*224 user_irq[2]
*225 user_irq[3]
*226 user_irq[4]
*227 user_irq[5]
*228 user_irq[6]
*229 user_irq[7]
*230 user_irq[8]
*231 user_irq[9]
*232 user_irq_core[0]
*233 user_irq_core[10]
*234 user_irq_core[11]
*235 user_irq_core[12]
*236 user_irq_core[13]
*237 user_irq_core[14]
*238 user_irq_core[15]
*239 user_irq_core[1]
*240 user_irq_core[2]
*241 user_irq_core[3]
*242 user_irq_core[4]
*243 user_irq_core[5]
*244 user_irq_core[6]
*245 user_irq_core[7]
*246 user_irq_core[8]
*247 user_irq_core[9]
*248 user_irq_ena[0]
*249 user_irq_ena[10]
*250 user_irq_ena[11]
*251 user_irq_ena[12]
*252 user_irq_ena[13]
*253 user_irq_ena[14]
*254 user_irq_ena[15]
*255 user_irq_ena[1]
*256 user_irq_ena[2]
*257 user_irq_ena[3]
*258 user_irq_ena[4]
*259 user_irq_ena[5]
*260 user_irq_ena[6]
*261 user_irq_ena[7]
*262 user_irq_ena[8]
*263 user_irq_ena[9]
*268 ahb_in_enable
*269 mprj_ack_i_core_bar
*270 mprj_dat_i_core_bar\[0\]
*271 mprj_dat_i_core_bar\[10\]
*272 mprj_dat_i_core_bar\[11\]
*273 mprj_dat_i_core_bar\[12\]
*274 mprj_dat_i_core_bar\[13\]
*275 mprj_dat_i_core_bar\[14\]
*276 mprj_dat_i_core_bar\[15\]
*277 mprj_dat_i_core_bar\[16\]
*278 mprj_dat_i_core_bar\[17\]
*279 mprj_dat_i_core_bar\[18\]
*280 mprj_dat_i_core_bar\[19\]
*281 mprj_dat_i_core_bar\[1\]
*282 mprj_dat_i_core_bar\[20\]
*283 mprj_dat_i_core_bar\[21\]
*284 mprj_dat_i_core_bar\[22\]
*285 mprj_dat_i_core_bar\[23\]
*286 mprj_dat_i_core_bar\[24\]
*287 mprj_dat_i_core_bar\[25\]
*288 mprj_dat_i_core_bar\[26\]
*289 mprj_dat_i_core_bar\[27\]
*290 mprj_dat_i_core_bar\[28\]
*291 mprj_dat_i_core_bar\[29\]
*292 mprj_dat_i_core_bar\[2\]
*293 mprj_dat_i_core_bar\[30\]
*294 mprj_dat_i_core_bar\[31\]
*295 mprj_dat_i_core_bar\[3\]
*296 mprj_dat_i_core_bar\[4\]
*297 mprj_dat_i_core_bar\[5\]
*298 mprj_dat_i_core_bar\[6\]
*299 mprj_dat_i_core_bar\[7\]
*300 mprj_dat_i_core_bar\[8\]
*301 mprj_dat_i_core_bar\[9\]
*302 mprj_logic1\[0\]
*303 mprj_logic1\[10\]
*304 mprj_logic1\[11\]
*305 mprj_logic1\[12\]
*306 mprj_logic1\[13\]
*307 mprj_logic1\[14\]
*308 mprj_logic1\[15\]
*309 mprj_logic1\[16\]
*310 mprj_logic1\[17\]
*311 mprj_logic1\[18\]
*312 mprj_logic1\[19\]
*313 mprj_logic1\[1\]
*314 mprj_logic1\[20\]
*315 mprj_logic1\[21\]
*316 mprj_logic1\[22\]
*317 mprj_logic1\[23\]
*318 mprj_logic1\[24\]
*319 mprj_logic1\[25\]
*320 mprj_logic1\[26\]
*321 mprj_logic1\[27\]
*322 mprj_logic1\[28\]
*323 mprj_logic1\[29\]
*324 mprj_logic1\[2\]
*325 mprj_logic1\[30\]
*326 mprj_logic1\[31\]
*327 mprj_logic1\[32\]
*328 mprj_logic1\[33\]
*329 mprj_logic1\[34\]
*330 mprj_logic1\[35\]
*331 mprj_logic1\[36\]
*332 mprj_logic1\[37\]
*333 mprj_logic1\[38\]
*334 mprj_logic1\[39\]
*335 mprj_logic1\[3\]
*336 mprj_logic1\[40\]
*337 mprj_logic1\[41\]
*338 mprj_logic1\[42\]
*339 mprj_logic1\[43\]
*340 mprj_logic1\[44\]
*341 mprj_logic1\[45\]
*342 mprj_logic1\[46\]
*343 mprj_logic1\[47\]
*344 mprj_logic1\[48\]
*345 mprj_logic1\[49\]
*346 mprj_logic1\[4\]
*347 mprj_logic1\[50\]
*348 mprj_logic1\[51\]
*349 mprj_logic1\[52\]
*350 mprj_logic1\[53\]
*351 mprj_logic1\[54\]
*352 mprj_logic1\[55\]
*353 mprj_logic1\[56\]
*354 mprj_logic1\[57\]
*355 mprj_logic1\[58\]
*356 mprj_logic1\[59\]
*357 mprj_logic1\[5\]
*358 mprj_logic1\[60\]
*359 mprj_logic1\[61\]
*360 mprj_logic1\[62\]
*361 mprj_logic1\[63\]
*362 mprj_logic1\[64\]
*363 mprj_logic1\[65\]
*364 mprj_logic1\[66\]
*365 mprj_logic1\[67\]
*366 mprj_logic1\[68\]
*367 mprj_logic1\[69\]
*368 mprj_logic1\[6\]
*369 mprj_logic1\[70\]
*370 mprj_logic1\[71\]
*371 mprj_logic1\[72\]
*372 mprj_logic1\[73\]
*373 mprj_logic1\[74\]
*374 mprj_logic1\[75\]
*375 mprj_logic1\[76\]
*376 mprj_logic1\[77\]
*377 mprj_logic1\[78\]
*378 mprj_logic1\[79\]
*379 mprj_logic1\[7\]
*380 mprj_logic1\[80\]
*381 mprj_logic1\[81\]
*382 mprj_logic1\[82\]
*383 mprj_logic1\[83\]
*384 mprj_logic1\[84\]
*385 mprj_logic1\[85\]
*386 mprj_logic1\[86\]
*387 mprj_logic1\[87\]
*388 mprj_logic1\[88\]
*389 mprj_logic1\[89\]
*390 mprj_logic1\[8\]
*391 mprj_logic1\[90\]
*392 mprj_logic1\[9\]
*393 net1
*394 net10
*395 net11
*396 net12
*397 net13
*398 net14
*399 net15
*400 net16
*401 net17
*402 net18
*403 net19
*404 net2
*405 net20
*406 net21
*407 net22
*408 net23
*409 net24
*410 net25
*411 net26
*412 net27
*413 net28
*414 net29
*415 net3
*416 net30
*417 net31
*418 net32
*419 net33
*420 net4
*421 net5
*422 net6
*423 net7
*424 net8
*425 net9
*426 user_irq_bar\[0\]
*427 user_irq_bar\[10\]
*428 user_irq_bar\[11\]
*429 user_irq_bar\[12\]
*430 user_irq_bar\[13\]
*431 user_irq_bar\[14\]
*432 user_irq_bar\[15\]
*433 user_irq_bar\[1\]
*434 user_irq_bar\[2\]
*435 user_irq_bar\[3\]
*436 user_irq_bar\[4\]
*437 user_irq_bar\[5\]
*438 user_irq_bar\[6\]
*439 user_irq_bar\[7\]
*440 user_irq_bar\[8\]
*441 user_irq_bar\[9\]
*442 user_irq_enable\[0\]
*443 user_irq_enable\[10\]
*444 user_irq_enable\[11\]
*445 user_irq_enable\[12\]
*446 user_irq_enable\[13\]
*447 user_irq_enable\[14\]
*448 user_irq_enable\[15\]
*449 user_irq_enable\[1\]
*450 user_irq_enable\[2\]
*451 user_irq_enable\[3\]
*452 user_irq_enable\[4\]
*453 user_irq_enable\[5\]
*454 user_irq_enable\[6\]
*455 user_irq_enable\[7\]
*456 user_irq_enable\[8\]
*457 user_irq_enable\[9\]
*458 ANTENNA__000__Y
*459 ANTENNA__001__Y
*460 ANTENNA__002__Y
*461 ANTENNA__003__Y
*462 ANTENNA__004__Y
*463 ANTENNA__005__Y
*464 ANTENNA__006__Y
*465 ANTENNA__007__Y
*466 ANTENNA__008__Y
*467 ANTENNA__009__Y
*468 ANTENNA__010__Y
*469 ANTENNA__011__Y
*470 ANTENNA__012__Y
*471 ANTENNA__013__Y
*472 ANTENNA__014__Y
*473 ANTENNA__015__Y
*474 ANTENNA__049__B
*475 ANTENNA__050__B
*476 ANTENNA__051__B
*477 ANTENNA__052__B
*478 ANTENNA__053__B
*479 ANTENNA__054__B
*480 ANTENNA__055__B
*481 ANTENNA__056__B
*482 ANTENNA__057__B
*483 ANTENNA__058__B
*484 ANTENNA__058__X
*485 ANTENNA__059__B
*486 ANTENNA__059__X
*487 ANTENNA__060__B
*488 ANTENNA__060__X
*489 ANTENNA__061__B
*490 ANTENNA__061__X
*491 ANTENNA__062__B
*492 ANTENNA__062__X
*493 ANTENNA__063__B
*494 ANTENNA__063__X
*495 ANTENNA__064__B
*496 ANTENNA__064__X
*497 ANTENNA__065__B
*498 ANTENNA__065__X
*499 ANTENNA__066__B
*500 ANTENNA__066__X
*501 ANTENNA__067__B
*502 ANTENNA__067__X
*503 ANTENNA__068__B
*504 ANTENNA__068__X
*505 ANTENNA__069__B
*506 ANTENNA__069__X
*507 ANTENNA__070__B
*508 ANTENNA__070__X
*509 ANTENNA__071__B
*510 ANTENNA__071__X
*511 ANTENNA__072__B
*512 ANTENNA__072__X
*513 ANTENNA__073__B
*514 ANTENNA__073__X
*515 ANTENNA__074__B
*516 ANTENNA__074__X
*517 ANTENNA__075__B
*518 ANTENNA__075__X
*519 ANTENNA__076__B
*520 ANTENNA__076__X
*521 ANTENNA__077__B
*522 ANTENNA__077__X
*523 ANTENNA__078__B
*524 ANTENNA__078__X
*525 ANTENNA__079__B
*526 ANTENNA__079__X
*527 ANTENNA__080__B
*528 ANTENNA__080__X
*529 ANTENNA__081__B
*530 ANTENNA__081__X
*531 ANTENNA__082__B
*532 ANTENNA__082__X
*533 ANTENNA__083__B
*534 ANTENNA__083__X
*535 ANTENNA__084__B
*536 ANTENNA__084__X
*537 ANTENNA__085__B
*538 ANTENNA__085__X
*539 ANTENNA__086__B
*540 ANTENNA__086__X
*541 ANTENNA__087__B
*542 ANTENNA__087__X
*543 ANTENNA__088__B
*544 ANTENNA__088__X
*545 ANTENNA__089__B
*546 ANTENNA__089__X
*547 ANTENNA__090__B
*548 ANTENNA__090__X
*549 ANTENNA__091__B
*550 ANTENNA__091__X
*551 ANTENNA__092__B
*552 ANTENNA__092__X
*553 ANTENNA__093__B
*554 ANTENNA__093__X
*555 ANTENNA__094__B
*556 ANTENNA__094__X
*557 ANTENNA__095__B
*558 ANTENNA__095__X
*559 ANTENNA__096__B
*560 ANTENNA__096__X
*561 ANTENNA__097__B
*562 ANTENNA__097__X
*563 ANTENNA__098__B
*564 ANTENNA__098__X
*565 ANTENNA__099__B
*566 ANTENNA__099__X
*567 ANTENNA__100__B
*568 ANTENNA__100__X
*569 ANTENNA__101__B
*570 ANTENNA__101__X
*571 ANTENNA__102__B
*572 ANTENNA__102__X
*573 ANTENNA__103__B
*574 ANTENNA__103__X
*575 ANTENNA__104__B
*576 ANTENNA__104__X
*577 ANTENNA__105__B
*578 ANTENNA__105__X
*579 ANTENNA__106__B
*580 ANTENNA__106__X
*581 ANTENNA__107__B
*582 ANTENNA__107__X
*583 ANTENNA__108__B
*584 ANTENNA__108__X
*585 ANTENNA__109__B
*586 ANTENNA__109__X
*587 ANTENNA__110__B
*588 ANTENNA__110__X
*589 ANTENNA__111__B
*590 ANTENNA__111__X
*591 ANTENNA__112__B
*592 ANTENNA__112__X
*593 ANTENNA__113__B
*594 ANTENNA__113__X
*595 ANTENNA__114__B
*596 ANTENNA__114__X
*597 ANTENNA__115__B
*598 ANTENNA__115__X
*599 ANTENNA__116__B
*600 ANTENNA__116__X
*601 ANTENNA__117__B
*602 ANTENNA__117__X
*603 ANTENNA__118__B
*604 ANTENNA__118__X
*605 ANTENNA__119__B
*606 ANTENNA__119__X
*607 ANTENNA__120__B
*608 ANTENNA__120__X
*609 ANTENNA__121__B
*610 ANTENNA__121__X
*611 ANTENNA__122__B
*612 ANTENNA__122__X
*613 ANTENNA__123__B
*614 ANTENNA__123__X
*615 ANTENNA__124__B
*616 ANTENNA__124__X
*617 ANTENNA__125__B
*618 ANTENNA__125__X
*619 ANTENNA__126__B
*620 ANTENNA__126__X
*621 ANTENNA__127__B
*622 ANTENNA__127__X
*623 ANTENNA__128__B
*624 ANTENNA__128__X
*625 ANTENNA__129__B
*626 ANTENNA__129__X
*627 ANTENNA__130__B
*628 ANTENNA__130__X
*629 ANTENNA__131__B
*630 ANTENNA__131__X
*631 ANTENNA__132__B
*632 ANTENNA__133__B
*633 ANTENNA__134__B
*634 ANTENNA__135__B
*635 ANTENNA__136__B
*636 ANTENNA__137__B
*637 ANTENNA__138__B
*638 ANTENNA__139__B
*639 ANTENNA_hreadyout_ack_gate_A
*640 ANTENNA_irq_gates\[0\]_A
*641 ANTENNA_irq_gates\[10\]_A
*642 ANTENNA_irq_gates\[11\]_A
*643 ANTENNA_irq_gates\[12\]_A
*644 ANTENNA_irq_gates\[13\]_A
*645 ANTENNA_irq_gates\[14\]_A
*646 ANTENNA_irq_gates\[15\]_A
*647 ANTENNA_irq_gates\[1\]_A
*648 ANTENNA_irq_gates\[2\]_A
*649 ANTENNA_irq_gates\[3\]_A
*650 ANTENNA_irq_gates\[4\]_A
*651 ANTENNA_irq_gates\[5\]_A
*652 ANTENNA_irq_gates\[6\]_A
*653 ANTENNA_irq_gates\[7\]_A
*654 ANTENNA_irq_gates\[8\]_A
*655 ANTENNA_irq_gates\[9\]_A
*656 ANTENNA_output10_X
*657 ANTENNA_output11_X
*658 ANTENNA_output12_X
*659 ANTENNA_output13_X
*660 ANTENNA_output14_X
*661 ANTENNA_output15_X
*662 ANTENNA_output16_X
*663 ANTENNA_output17_X
*664 ANTENNA_output18_X
*665 ANTENNA_output19_X
*666 ANTENNA_output1_X
*667 ANTENNA_output20_X
*668 ANTENNA_output21_X
*669 ANTENNA_output22_X
*670 ANTENNA_output23_X
*671 ANTENNA_output24_X
*672 ANTENNA_output25_X
*673 ANTENNA_output26_X
*674 ANTENNA_output27_X
*675 ANTENNA_output28_X
*676 ANTENNA_output29_X
*677 ANTENNA_output2_X
*678 ANTENNA_output30_X
*679 ANTENNA_output31_X
*680 ANTENNA_output32_X
*681 ANTENNA_output33_X
*682 ANTENNA_output3_X
*683 ANTENNA_output4_X
*684 ANTENNA_output5_X
*685 ANTENNA_output6_X
*686 ANTENNA_output7_X
*687 ANTENNA_output8_X
*688 ANTENNA_output9_X
*689 ANTENNA_wb_hrdata_gates\[0\]_A
*690 ANTENNA_wb_hrdata_gates\[10\]_A
*691 ANTENNA_wb_hrdata_gates\[11\]_A
*692 ANTENNA_wb_hrdata_gates\[12\]_A
*693 ANTENNA_wb_hrdata_gates\[13\]_A
*694 ANTENNA_wb_hrdata_gates\[14\]_A
*695 ANTENNA_wb_hrdata_gates\[15\]_A
*696 ANTENNA_wb_hrdata_gates\[16\]_A
*697 ANTENNA_wb_hrdata_gates\[17\]_A
*698 ANTENNA_wb_hrdata_gates\[18\]_A
*699 ANTENNA_wb_hrdata_gates\[19\]_A
*700 ANTENNA_wb_hrdata_gates\[1\]_A
*701 ANTENNA_wb_hrdata_gates\[20\]_A
*702 ANTENNA_wb_hrdata_gates\[21\]_A
*703 ANTENNA_wb_hrdata_gates\[22\]_A
*704 ANTENNA_wb_hrdata_gates\[23\]_A
*705 ANTENNA_wb_hrdata_gates\[24\]_A
*706 ANTENNA_wb_hrdata_gates\[25\]_A
*707 ANTENNA_wb_hrdata_gates\[26\]_A
*708 ANTENNA_wb_hrdata_gates\[27\]_A
*709 ANTENNA_wb_hrdata_gates\[28\]_A
*710 ANTENNA_wb_hrdata_gates\[29\]_A
*711 ANTENNA_wb_hrdata_gates\[2\]_A
*712 ANTENNA_wb_hrdata_gates\[30\]_A
*713 ANTENNA_wb_hrdata_gates\[31\]_A
*714 ANTENNA_wb_hrdata_gates\[3\]_A
*715 ANTENNA_wb_hrdata_gates\[4\]_A
*716 ANTENNA_wb_hrdata_gates\[5\]_A
*717 ANTENNA_wb_hrdata_gates\[6\]_A
*718 ANTENNA_wb_hrdata_gates\[7\]_A
*719 ANTENNA_wb_hrdata_gates\[8\]_A
*720 ANTENNA_wb_hrdata_gates\[9\]_A
*721 FILLER_0_100
*722 FILLER_0_103
*723 FILLER_0_106
*724 FILLER_0_109
*725 FILLER_0_113
*726 FILLER_0_116
*727 FILLER_0_119
*728 FILLER_0_12
*729 FILLER_0_122
*730 FILLER_0_125
*731 FILLER_0_128
*732 FILLER_0_131
*733 FILLER_0_134
*734 FILLER_0_137
*735 FILLER_0_141
*736 FILLER_0_144
*737 FILLER_0_147
*738 FILLER_0_15
*739 FILLER_0_150
*740 FILLER_0_153
*741 FILLER_0_156
*742 FILLER_0_159
*743 FILLER_0_162
*744 FILLER_0_165
*745 FILLER_0_169
*746 FILLER_0_172
*747 FILLER_0_175
*748 FILLER_0_178
*749 FILLER_0_18
*750 FILLER_0_181
*751 FILLER_0_184
*752 FILLER_0_187
*753 FILLER_0_190
*754 FILLER_0_193
*755 FILLER_0_197
*756 FILLER_0_200
*757 FILLER_0_203
*758 FILLER_0_206
*759 FILLER_0_209
*760 FILLER_0_21
*761 FILLER_0_212
*762 FILLER_0_215
*763 FILLER_0_218
*764 FILLER_0_221
*765 FILLER_0_225
*766 FILLER_0_228
*767 FILLER_0_231
*768 FILLER_0_234
*769 FILLER_0_237
*770 FILLER_0_24
*771 FILLER_0_240
*772 FILLER_0_243
*773 FILLER_0_27
*774 FILLER_0_29
*775 FILLER_0_3
*776 FILLER_0_32
*777 FILLER_0_35
*778 FILLER_0_356
*779 FILLER_0_38
*780 FILLER_0_41
*781 FILLER_0_44
*782 FILLER_0_459
*783 FILLER_0_462
*784 FILLER_0_47
*785 FILLER_0_50
*786 FILLER_0_53
*787 FILLER_0_57
*788 FILLER_0_6
*789 FILLER_0_60
*790 FILLER_0_63
*791 FILLER_0_66
*792 FILLER_0_69
*793 FILLER_0_72
*794 FILLER_0_75
*795 FILLER_0_78
*796 FILLER_0_81
*797 FILLER_0_85
*798 FILLER_0_88
*799 FILLER_0_9
*800 FILLER_0_91
*801 FILLER_0_94
*802 FILLER_0_97
*803 FILLER_10_108
*804 FILLER_10_12
*805 FILLER_10_15
*806 FILLER_10_18
*807 FILLER_10_21
*808 FILLER_10_24
*809 FILLER_10_27
*810 FILLER_10_29
*811 FILLER_10_3
*812 FILLER_10_32
*813 FILLER_10_35
*814 FILLER_10_351
*815 FILLER_10_361
*816 FILLER_10_364
*817 FILLER_10_379
*818 FILLER_10_38
*819 FILLER_10_387
*820 FILLER_10_390
*821 FILLER_10_393
*822 FILLER_10_396
*823 FILLER_10_399
*824 FILLER_10_402
*825 FILLER_10_405
*826 FILLER_10_408
*827 FILLER_10_41
*828 FILLER_10_411
*829 FILLER_10_414
*830 FILLER_10_417
*831 FILLER_10_420
*832 FILLER_10_423
*833 FILLER_10_426
*834 FILLER_10_429
*835 FILLER_10_433
*836 FILLER_10_436
*837 FILLER_10_439
*838 FILLER_10_44
*839 FILLER_10_442
*840 FILLER_10_445
*841 FILLER_10_448
*842 FILLER_10_451
*843 FILLER_10_454
*844 FILLER_10_457
*845 FILLER_10_460
*846 FILLER_10_463
*847 FILLER_10_47
*848 FILLER_10_50
*849 FILLER_10_53
*850 FILLER_10_57
*851 FILLER_10_6
*852 FILLER_10_60
*853 FILLER_10_63
*854 FILLER_10_66
*855 FILLER_10_69
*856 FILLER_10_72
*857 FILLER_10_77
*858 FILLER_10_81
*859 FILLER_10_9
*860 FILLER_10_91
*861 FILLER_11_115
*862 FILLER_11_12
*863 FILLER_11_15
*864 FILLER_11_18
*865 FILLER_11_21
*866 FILLER_11_24
*867 FILLER_11_27
*868 FILLER_11_3
*869 FILLER_11_30
*870 FILLER_11_33
*871 FILLER_11_351
*872 FILLER_11_36
*873 FILLER_11_361
*874 FILLER_11_375
*875 FILLER_11_378
*876 FILLER_11_381
*877 FILLER_11_384
*878 FILLER_11_387
*879 FILLER_11_39
*880 FILLER_11_390
*881 FILLER_11_393
*882 FILLER_11_396
*883 FILLER_11_399
*884 FILLER_11_402
*885 FILLER_11_405
*886 FILLER_11_408
*887 FILLER_11_411
*888 FILLER_11_414
*889 FILLER_11_417
*890 FILLER_11_420
*891 FILLER_11_423
*892 FILLER_11_426
*893 FILLER_11_429
*894 FILLER_11_432
*895 FILLER_11_435
*896 FILLER_11_438
*897 FILLER_11_441
*898 FILLER_11_444
*899 FILLER_11_447
*900 FILLER_11_450
*901 FILLER_11_453
*902 FILLER_11_456
*903 FILLER_11_459
*904 FILLER_11_461
*905 FILLER_11_464
*906 FILLER_11_55
*907 FILLER_11_6
*908 FILLER_11_79
*909 FILLER_11_9
*910 FILLER_12_110
*911 FILLER_12_12
*912 FILLER_12_15
*913 FILLER_12_18
*914 FILLER_12_21
*915 FILLER_12_24
*916 FILLER_12_27
*917 FILLER_12_29
*918 FILLER_12_3
*919 FILLER_12_32
*920 FILLER_12_360
*921 FILLER_12_363
*922 FILLER_12_366
*923 FILLER_12_369
*924 FILLER_12_372
*925 FILLER_12_375
*926 FILLER_12_377
*927 FILLER_12_380
*928 FILLER_12_383
*929 FILLER_12_386
*930 FILLER_12_389
*931 FILLER_12_392
*932 FILLER_12_395
*933 FILLER_12_398
*934 FILLER_12_401
*935 FILLER_12_404
*936 FILLER_12_407
*937 FILLER_12_410
*938 FILLER_12_413
*939 FILLER_12_416
*940 FILLER_12_419
*941 FILLER_12_422
*942 FILLER_12_425
*943 FILLER_12_428
*944 FILLER_12_431
*945 FILLER_12_433
*946 FILLER_12_436
*947 FILLER_12_439
*948 FILLER_12_442
*949 FILLER_12_445
*950 FILLER_12_448
*951 FILLER_12_451
*952 FILLER_12_454
*953 FILLER_12_457
*954 FILLER_12_460
*955 FILLER_12_463
*956 FILLER_12_6
*957 FILLER_12_9
*958 FILLER_13_115
*959 FILLER_13_12
*960 FILLER_13_15
*961 FILLER_13_18
*962 FILLER_13_21
*963 FILLER_13_24
*964 FILLER_13_27
*965 FILLER_13_3
*966 FILLER_13_30
*967 FILLER_13_33
*968 FILLER_13_351
*969 FILLER_13_354
*970 FILLER_13_357
*971 FILLER_13_36
*972 FILLER_13_360
*973 FILLER_13_363
*974 FILLER_13_366
*975 FILLER_13_369
*976 FILLER_13_372
*977 FILLER_13_375
*978 FILLER_13_378
*979 FILLER_13_381
*980 FILLER_13_384
*981 FILLER_13_387
*982 FILLER_13_39
*983 FILLER_13_390
*984 FILLER_13_393
*985 FILLER_13_396
*986 FILLER_13_399
*987 FILLER_13_402
*988 FILLER_13_405
*989 FILLER_13_408
*990 FILLER_13_411
*991 FILLER_13_414
*992 FILLER_13_417
*993 FILLER_13_420
*994 FILLER_13_423
*995 FILLER_13_426
*996 FILLER_13_429
*997 FILLER_13_432
*998 FILLER_13_435
*999 FILLER_13_438
*1000 FILLER_13_441
*1001 FILLER_13_444
*1002 FILLER_13_447
*1003 FILLER_13_450
*1004 FILLER_13_453
*1005 FILLER_13_456
*1006 FILLER_13_459
*1007 FILLER_13_461
*1008 FILLER_13_464
*1009 FILLER_13_53
*1010 FILLER_13_6
*1011 FILLER_13_64
*1012 FILLER_13_9
*1013 FILLER_14_12
*1014 FILLER_14_15
*1015 FILLER_14_176
*1016 FILLER_14_18
*1017 FILLER_14_195
*1018 FILLER_14_197
*1019 FILLER_14_21
*1020 FILLER_14_219
*1021 FILLER_14_225
*1022 FILLER_14_24
*1023 FILLER_14_251
*1024 FILLER_14_27
*1025 FILLER_14_29
*1026 FILLER_14_292
*1027 FILLER_14_295
*1028 FILLER_14_298
*1029 FILLER_14_3
*1030 FILLER_14_301
*1031 FILLER_14_304
*1032 FILLER_14_307
*1033 FILLER_14_309
*1034 FILLER_14_312
*1035 FILLER_14_315
*1036 FILLER_14_318
*1037 FILLER_14_32
*1038 FILLER_14_321
*1039 FILLER_14_324
*1040 FILLER_14_327
*1041 FILLER_14_330
*1042 FILLER_14_333
*1043 FILLER_14_337
*1044 FILLER_14_340
*1045 FILLER_14_343
*1046 FILLER_14_346
*1047 FILLER_14_349
*1048 FILLER_14_35
*1049 FILLER_14_352
*1050 FILLER_14_355
*1051 FILLER_14_358
*1052 FILLER_14_361
*1053 FILLER_14_365
*1054 FILLER_14_368
*1055 FILLER_14_371
*1056 FILLER_14_374
*1057 FILLER_14_377
*1058 FILLER_14_38
*1059 FILLER_14_380
*1060 FILLER_14_383
*1061 FILLER_14_386
*1062 FILLER_14_389
*1063 FILLER_14_393
*1064 FILLER_14_396
*1065 FILLER_14_399
*1066 FILLER_14_402
*1067 FILLER_14_405
*1068 FILLER_14_408
*1069 FILLER_14_41
*1070 FILLER_14_411
*1071 FILLER_14_414
*1072 FILLER_14_417
*1073 FILLER_14_421
*1074 FILLER_14_424
*1075 FILLER_14_427
*1076 FILLER_14_430
*1077 FILLER_14_433
*1078 FILLER_14_436
*1079 FILLER_14_439
*1080 FILLER_14_44
*1081 FILLER_14_442
*1082 FILLER_14_445
*1083 FILLER_14_449
*1084 FILLER_14_452
*1085 FILLER_14_455
*1086 FILLER_14_458
*1087 FILLER_14_461
*1088 FILLER_14_464
*1089 FILLER_14_47
*1090 FILLER_14_50
*1091 FILLER_14_53
*1092 FILLER_14_59
*1093 FILLER_14_6
*1094 FILLER_14_62
*1095 FILLER_14_66
*1096 FILLER_14_69
*1097 FILLER_14_72
*1098 FILLER_14_75
*1099 FILLER_14_80
*1100 FILLER_14_83
*1101 FILLER_14_89
*1102 FILLER_14_9
*1103 FILLER_14_92
*1104 FILLER_14_98
*1105 FILLER_15_102
*1106 FILLER_15_105
*1107 FILLER_15_12
*1108 FILLER_15_15
*1109 FILLER_15_167
*1110 FILLER_15_18
*1111 FILLER_15_21
*1112 FILLER_15_225
*1113 FILLER_15_24
*1114 FILLER_15_240
*1115 FILLER_15_264
*1116 FILLER_15_27
*1117 FILLER_15_279
*1118 FILLER_15_290
*1119 FILLER_15_293
*1120 FILLER_15_296
*1121 FILLER_15_299
*1122 FILLER_15_3
*1123 FILLER_15_30
*1124 FILLER_15_302
*1125 FILLER_15_305
*1126 FILLER_15_308
*1127 FILLER_15_311
*1128 FILLER_15_314
*1129 FILLER_15_317
*1130 FILLER_15_320
*1131 FILLER_15_323
*1132 FILLER_15_326
*1133 FILLER_15_329
*1134 FILLER_15_33
*1135 FILLER_15_332
*1136 FILLER_15_335
*1137 FILLER_15_337
*1138 FILLER_15_340
*1139 FILLER_15_343
*1140 FILLER_15_346
*1141 FILLER_15_349
*1142 FILLER_15_352
*1143 FILLER_15_355
*1144 FILLER_15_358
*1145 FILLER_15_36
*1146 FILLER_15_361
*1147 FILLER_15_364
*1148 FILLER_15_367
*1149 FILLER_15_370
*1150 FILLER_15_373
*1151 FILLER_15_376
*1152 FILLER_15_379
*1153 FILLER_15_382
*1154 FILLER_15_385
*1155 FILLER_15_388
*1156 FILLER_15_39
*1157 FILLER_15_391
*1158 FILLER_15_393
*1159 FILLER_15_396
*1160 FILLER_15_399
*1161 FILLER_15_402
*1162 FILLER_15_405
*1163 FILLER_15_408
*1164 FILLER_15_411
*1165 FILLER_15_414
*1166 FILLER_15_417
*1167 FILLER_15_42
*1168 FILLER_15_420
*1169 FILLER_15_423
*1170 FILLER_15_426
*1171 FILLER_15_429
*1172 FILLER_15_432
*1173 FILLER_15_435
*1174 FILLER_15_438
*1175 FILLER_15_441
*1176 FILLER_15_444
*1177 FILLER_15_447
*1178 FILLER_15_449
*1179 FILLER_15_45
*1180 FILLER_15_452
*1181 FILLER_15_455
*1182 FILLER_15_458
*1183 FILLER_15_461
*1184 FILLER_15_464
*1185 FILLER_15_48
*1186 FILLER_15_51
*1187 FILLER_15_54
*1188 FILLER_15_57
*1189 FILLER_15_6
*1190 FILLER_15_60
*1191 FILLER_15_63
*1192 FILLER_15_66
*1193 FILLER_15_69
*1194 FILLER_15_72
*1195 FILLER_15_75
*1196 FILLER_15_78
*1197 FILLER_15_81
*1198 FILLER_15_84
*1199 FILLER_15_87
*1200 FILLER_15_9
*1201 FILLER_15_90
*1202 FILLER_15_93
*1203 FILLER_15_96
*1204 FILLER_15_99
*1205 FILLER_16_100
*1206 FILLER_16_103
*1207 FILLER_16_106
*1208 FILLER_16_109
*1209 FILLER_16_112
*1210 FILLER_16_115
*1211 FILLER_16_118
*1212 FILLER_16_12
*1213 FILLER_16_121
*1214 FILLER_16_124
*1215 FILLER_16_127
*1216 FILLER_16_130
*1217 FILLER_16_133
*1218 FILLER_16_136
*1219 FILLER_16_139
*1220 FILLER_16_143
*1221 FILLER_16_146
*1222 FILLER_16_15
*1223 FILLER_16_154
*1224 FILLER_16_18
*1225 FILLER_16_21
*1226 FILLER_16_216
*1227 FILLER_16_230
*1228 FILLER_16_237
*1229 FILLER_16_24
*1230 FILLER_16_243
*1231 FILLER_16_246
*1232 FILLER_16_251
*1233 FILLER_16_261
*1234 FILLER_16_266
*1235 FILLER_16_269
*1236 FILLER_16_27
*1237 FILLER_16_274
*1238 FILLER_16_277
*1239 FILLER_16_280
*1240 FILLER_16_283
*1241 FILLER_16_286
*1242 FILLER_16_289
*1243 FILLER_16_29
*1244 FILLER_16_292
*1245 FILLER_16_295
*1246 FILLER_16_298
*1247 FILLER_16_3
*1248 FILLER_16_306
*1249 FILLER_16_309
*1250 FILLER_16_312
*1251 FILLER_16_315
*1252 FILLER_16_318
*1253 FILLER_16_32
*1254 FILLER_16_321
*1255 FILLER_16_324
*1256 FILLER_16_327
*1257 FILLER_16_330
*1258 FILLER_16_333
*1259 FILLER_16_336
*1260 FILLER_16_339
*1261 FILLER_16_342
*1262 FILLER_16_345
*1263 FILLER_16_348
*1264 FILLER_16_35
*1265 FILLER_16_351
*1266 FILLER_16_354
*1267 FILLER_16_357
*1268 FILLER_16_360
*1269 FILLER_16_363
*1270 FILLER_16_365
*1271 FILLER_16_368
*1272 FILLER_16_371
*1273 FILLER_16_374
*1274 FILLER_16_377
*1275 FILLER_16_38
*1276 FILLER_16_380
*1277 FILLER_16_383
*1278 FILLER_16_386
*1279 FILLER_16_389
*1280 FILLER_16_392
*1281 FILLER_16_395
*1282 FILLER_16_398
*1283 FILLER_16_401
*1284 FILLER_16_404
*1285 FILLER_16_407
*1286 FILLER_16_41
*1287 FILLER_16_410
*1288 FILLER_16_413
*1289 FILLER_16_416
*1290 FILLER_16_419
*1291 FILLER_16_421
*1292 FILLER_16_424
*1293 FILLER_16_427
*1294 FILLER_16_430
*1295 FILLER_16_433
*1296 FILLER_16_436
*1297 FILLER_16_439
*1298 FILLER_16_44
*1299 FILLER_16_442
*1300 FILLER_16_445
*1301 FILLER_16_448
*1302 FILLER_16_451
*1303 FILLER_16_454
*1304 FILLER_16_457
*1305 FILLER_16_460
*1306 FILLER_16_463
*1307 FILLER_16_47
*1308 FILLER_16_50
*1309 FILLER_16_53
*1310 FILLER_16_56
*1311 FILLER_16_59
*1312 FILLER_16_6
*1313 FILLER_16_62
*1314 FILLER_16_65
*1315 FILLER_16_68
*1316 FILLER_16_71
*1317 FILLER_16_74
*1318 FILLER_16_77
*1319 FILLER_16_80
*1320 FILLER_16_83
*1321 FILLER_16_85
*1322 FILLER_16_88
*1323 FILLER_16_9
*1324 FILLER_16_91
*1325 FILLER_16_94
*1326 FILLER_16_97
*1327 FILLER_17_102
*1328 FILLER_17_105
*1329 FILLER_17_108
*1330 FILLER_17_111
*1331 FILLER_17_113
*1332 FILLER_17_116
*1333 FILLER_17_119
*1334 FILLER_17_12
*1335 FILLER_17_122
*1336 FILLER_17_125
*1337 FILLER_17_128
*1338 FILLER_17_131
*1339 FILLER_17_134
*1340 FILLER_17_137
*1341 FILLER_17_140
*1342 FILLER_17_143
*1343 FILLER_17_147
*1344 FILLER_17_15
*1345 FILLER_17_150
*1346 FILLER_17_157
*1347 FILLER_17_160
*1348 FILLER_17_163
*1349 FILLER_17_166
*1350 FILLER_17_171
*1351 FILLER_17_175
*1352 FILLER_17_18
*1353 FILLER_17_182
*1354 FILLER_17_191
*1355 FILLER_17_194
*1356 FILLER_17_197
*1357 FILLER_17_200
*1358 FILLER_17_203
*1359 FILLER_17_207
*1360 FILLER_17_21
*1361 FILLER_17_212
*1362 FILLER_17_223
*1363 FILLER_17_227
*1364 FILLER_17_230
*1365 FILLER_17_233
*1366 FILLER_17_236
*1367 FILLER_17_239
*1368 FILLER_17_24
*1369 FILLER_17_242
*1370 FILLER_17_245
*1371 FILLER_17_248
*1372 FILLER_17_251
*1373 FILLER_17_254
*1374 FILLER_17_257
*1375 FILLER_17_260
*1376 FILLER_17_267
*1377 FILLER_17_27
*1378 FILLER_17_270
*1379 FILLER_17_273
*1380 FILLER_17_276
*1381 FILLER_17_279
*1382 FILLER_17_281
*1383 FILLER_17_284
*1384 FILLER_17_3
*1385 FILLER_17_30
*1386 FILLER_17_302
*1387 FILLER_17_305
*1388 FILLER_17_308
*1389 FILLER_17_319
*1390 FILLER_17_325
*1391 FILLER_17_33
*1392 FILLER_17_344
*1393 FILLER_17_347