*SPEF "ieee 1481-1999"
*DESIGN "mgmt_protect"
*DATE "21:30:07 Sunday June 15, 2025"
*VENDOR "The OpenROAD Project"
*PROGRAM "OpenROAD"
*VERSION "edf00dff99f6c40d67a30c0e22a8191c5d2ed9d6"
*DESIGN_FLOW "NAME_SCOPE LOCAL" "PIN_CAP NONE"
*DIVIDER /
*DELIMITER :
*BUS_DELIMITER []
*T_UNIT 1 NS
*C_UNIT 1 PF
*R_UNIT 1 OHM
*L_UNIT 1 HENRY

*NAME_MAP
*1 frigate_HCLK
*2 frigate_HRESETn
*3 mprj_AHB_Ena
*4 mprj_HADDR_core[0]
*5 mprj_HADDR_core[10]
*6 mprj_HADDR_core[11]
*7 mprj_HADDR_core[12]
*8 mprj_HADDR_core[13]
*9 mprj_HADDR_core[14]
*10 mprj_HADDR_core[15]
*11 mprj_HADDR_core[16]
*12 mprj_HADDR_core[17]
*13 mprj_HADDR_core[18]
*14 mprj_HADDR_core[19]
*15 mprj_HADDR_core[1]
*16 mprj_HADDR_core[20]
*17 mprj_HADDR_core[21]
*18 mprj_HADDR_core[22]
*19 mprj_HADDR_core[23]
*20 mprj_HADDR_core[24]
*21 mprj_HADDR_core[25]
*22 mprj_HADDR_core[26]
*23 mprj_HADDR_core[27]
*24 mprj_HADDR_core[28]
*25 mprj_HADDR_core[29]
*26 mprj_HADDR_core[2]
*27 mprj_HADDR_core[30]
*28 mprj_HADDR_core[31]
*29 mprj_HADDR_core[3]
*30 mprj_HADDR_core[4]
*31 mprj_HADDR_core[5]
*32 mprj_HADDR_core[6]
*33 mprj_HADDR_core[7]
*34 mprj_HADDR_core[8]
*35 mprj_HADDR_core[9]
*36 mprj_HADDR_user[0]
*37 mprj_HADDR_user[10]
*38 mprj_HADDR_user[11]
*39 mprj_HADDR_user[12]
*40 mprj_HADDR_user[13]
*41 mprj_HADDR_user[14]
*42 mprj_HADDR_user[15]
*43 mprj_HADDR_user[16]
*44 mprj_HADDR_user[17]
*45 mprj_HADDR_user[18]
*46 mprj_HADDR_user[19]
*47 mprj_HADDR_user[1]
*48 mprj_HADDR_user[20]
*49 mprj_HADDR_user[21]
*50 mprj_HADDR_user[22]
*51 mprj_HADDR_user[23]
*52 mprj_HADDR_user[24]
*53 mprj_HADDR_user[25]
*54 mprj_HADDR_user[26]
*55 mprj_HADDR_user[27]
*56 mprj_HADDR_user[28]
*57 mprj_HADDR_user[29]
*58 mprj_HADDR_user[2]
*59 mprj_HADDR_user[30]
*60 mprj_HADDR_user[31]
*61 mprj_HADDR_user[3]
*62 mprj_HADDR_user[4]
*63 mprj_HADDR_user[5]
*64 mprj_HADDR_user[6]
*65 mprj_HADDR_user[7]
*66 mprj_HADDR_user[8]
*67 mprj_HADDR_user[9]
*68 mprj_HRDATA_core[0]
*69 mprj_HRDATA_core[10]
*70 mprj_HRDATA_core[11]
*71 mprj_HRDATA_core[12]
*72 mprj_HRDATA_core[13]
*73 mprj_HRDATA_core[14]
*74 mprj_HRDATA_core[15]
*75 mprj_HRDATA_core[16]
*76 mprj_HRDATA_core[17]
*77 mprj_HRDATA_core[18]
*78 mprj_HRDATA_core[19]
*79 mprj_HRDATA_core[1]
*80 mprj_HRDATA_core[20]
*81 mprj_HRDATA_core[21]
*82 mprj_HRDATA_core[22]
*83 mprj_HRDATA_core[23]
*84 mprj_HRDATA_core[24]
*85 mprj_HRDATA_core[25]
*86 mprj_HRDATA_core[26]
*87 mprj_HRDATA_core[27]
*88 mprj_HRDATA_core[28]
*89 mprj_HRDATA_core[29]
*90 mprj_HRDATA_core[2]
*91 mprj_HRDATA_core[30]
*92 mprj_HRDATA_core[31]
*93 mprj_HRDATA_core[3]
*94 mprj_HRDATA_core[4]
*95 mprj_HRDATA_core[5]
*96 mprj_HRDATA_core[6]
*97 mprj_HRDATA_core[7]
*98 mprj_HRDATA_core[8]
*99 mprj_HRDATA_core[9]
*100 mprj_HRDATA_user[0]
*101 mprj_HRDATA_user[10]
*102 mprj_HRDATA_user[11]
*103 mprj_HRDATA_user[12]
*104 mprj_HRDATA_user[13]
*105 mprj_HRDATA_user[14]
*106 mprj_HRDATA_user[15]
*107 mprj_HRDATA_user[16]
*108 mprj_HRDATA_user[17]
*109 mprj_HRDATA_user[18]
*110 mprj_HRDATA_user[19]
*111 mprj_HRDATA_user[1]
*112 mprj_HRDATA_user[20]
*113 mprj_HRDATA_user[21]
*114 mprj_HRDATA_user[22]
*115 mprj_HRDATA_user[23]
*116 mprj_HRDATA_user[24]
*117 mprj_HRDATA_user[25]
*118 mprj_HRDATA_user[26]
*119 mprj_HRDATA_user[27]
*120 mprj_HRDATA_user[28]
*121 mprj_HRDATA_user[29]
*122 mprj_HRDATA_user[2]
*123 mprj_HRDATA_user[30]
*124 mprj_HRDATA_user[31]
*125 mprj_HRDATA_user[3]
*126 mprj_HRDATA_user[4]
*127 mprj_HRDATA_user[5]
*128 mprj_HRDATA_user[6]
*129 mprj_HRDATA_user[7]
*130 mprj_HRDATA_user[8]
*131 mprj_HRDATA_user[9]
*132 mprj_HREADYOUT_core
*133 mprj_HREADYOUT_user
*134 mprj_HREADY_core
*135 mprj_HREADY_user
*136 mprj_HSEL_core
*137 mprj_HSEL_user
*138 mprj_HSIZE_core[0]
*139 mprj_HSIZE_core[1]
*140 mprj_HSIZE_core[2]
*141 mprj_HSIZE_user[0]
*142 mprj_HSIZE_user[1]
*143 mprj_HSIZE_user[2]
*144 mprj_HTRANS_core[0]
*145 mprj_HTRANS_core[1]
*146 mprj_HTRANS_user[0]
*147 mprj_HTRANS_user[1]
*148 mprj_HWDATA_core[0]
*149 mprj_HWDATA_core[10]
*150 mprj_HWDATA_core[11]
*151 mprj_HWDATA_core[12]
*152 mprj_HWDATA_core[13]
*153 mprj_HWDATA_core[14]
*154 mprj_HWDATA_core[15]
*155 mprj_HWDATA_core[16]
*156 mprj_HWDATA_core[17]
*157 mprj_HWDATA_core[18]
*158 mprj_HWDATA_core[19]
*159 mprj_HWDATA_core[1]
*160 mprj_HWDATA_core[20]
*161 mprj_HWDATA_core[21]
*162 mprj_HWDATA_core[22]
*163 mprj_HWDATA_core[23]
*164 mprj_HWDATA_core[24]
*165 mprj_HWDATA_core[25]
*166 mprj_HWDATA_core[26]
*167 mprj_HWDATA_core[27]
*168 mprj_HWDATA_core[28]
*169 mprj_HWDATA_core[29]
*170 mprj_HWDATA_core[2]
*171 mprj_HWDATA_core[30]
*172 mprj_HWDATA_core[31]
*173 mprj_HWDATA_core[3]
*174 mprj_HWDATA_core[4]
*175 mprj_HWDATA_core[5]
*176 mprj_HWDATA_core[6]
*177 mprj_HWDATA_core[7]
*178 mprj_HWDATA_core[8]
*179 mprj_HWDATA_core[9]
*180 mprj_HWDATA_user[0]
*181 mprj_HWDATA_user[10]
*182 mprj_HWDATA_user[11]
*183 mprj_HWDATA_user[12]
*184 mprj_HWDATA_user[13]
*185 mprj_HWDATA_user[14]
*186 mprj_HWDATA_user[15]
*187 mprj_HWDATA_user[16]
*188 mprj_HWDATA_user[17]
*189 mprj_HWDATA_user[18]
*190 mprj_HWDATA_user[19]
*191 mprj_HWDATA_user[1]
*192 mprj_HWDATA_user[20]
*193 mprj_HWDATA_user[21]
*194 mprj_HWDATA_user[22]
*195 mprj_HWDATA_user[23]
*196 mprj_HWDATA_user[24]
*197 mprj_HWDATA_user[25]
*198 mprj_HWDATA_user[26]
*199 mprj_HWDATA_user[27]
*200 mprj_HWDATA_user[28]
*201 mprj_HWDATA_user[29]
*202 mprj_HWDATA_user[2]
*203 mprj_HWDATA_user[30]
*204 mprj_HWDATA_user[31]
*205 mprj_HWDATA_user[3]
*206 mprj_HWDATA_user[4]
*207 mprj_HWDATA_user[5]
*208 mprj_HWDATA_user[6]
*209 mprj_HWDATA_user[7]
*210 mprj_HWDATA_user[8]
*211 mprj_HWDATA_user[9]
*212 mprj_HWRITE_core
*213 mprj_HWRITE_user
*214 user_HCLK
*215 user_HRESETn
*216 user_irq[0]
*217 user_irq[10]
*218 user_irq[11]
*219 user_irq[12]
*220 user_irq[13]
*221 user_irq[14]
*222 user_irq[15]
*223 user_irq[1]
*224 user_irq[2]
*225 user_irq[3]
*226 user_irq[4]
*227 user_irq[5]
*228 user_irq[6]
*229 user_irq[7]
*230 user_irq[8]
*231 user_irq[9]
*232 user_irq_core[0]
*233 user_irq_core[10]
*234 user_irq_core[11]
*235 user_irq_core[12]
*236 user_irq_core[13]
*237 user_irq_core[14]
*238 user_irq_core[15]
*239 user_irq_core[1]
*240 user_irq_core[2]
*241 user_irq_core[3]
*242 user_irq_core[4]
*243 user_irq_core[5]
*244 user_irq_core[6]
*245 user_irq_core[7]
*246 user_irq_core[8]
*247 user_irq_core[9]
*248 user_irq_ena[0]
*249 user_irq_ena[10]
*250 user_irq_ena[11]
*251 user_irq_ena[12]
*252 user_irq_ena[13]
*253 user_irq_ena[14]
*254 user_irq_ena[15]
*255 user_irq_ena[1]
*256 user_irq_ena[2]
*257 user_irq_ena[3]
*258 user_irq_ena[4]
*259 user_irq_ena[5]
*260 user_irq_ena[6]
*261 user_irq_ena[7]
*262 user_irq_ena[8]
*263 user_irq_ena[9]
*268 ahb_in_enable
*269 mprj_ack_i_core_bar
*270 mprj_dat_i_core_bar\[0\]
*271 mprj_dat_i_core_bar\[10\]
*272 mprj_dat_i_core_bar\[11\]
*273 mprj_dat_i_core_bar\[12\]
*274 mprj_dat_i_core_bar\[13\]
*275 mprj_dat_i_core_bar\[14\]
*276 mprj_dat_i_core_bar\[15\]
*277 mprj_dat_i_core_bar\[16\]
*278 mprj_dat_i_core_bar\[17\]
*279 mprj_dat_i_core_bar\[18\]
*280 mprj_dat_i_core_bar\[19\]
*281 mprj_dat_i_core_bar\[1\]
*282 mprj_dat_i_core_bar\[20\]
*283 mprj_dat_i_core_bar\[21\]
*284 mprj_dat_i_core_bar\[22\]
*285 mprj_dat_i_core_bar\[23\]
*286 mprj_dat_i_core_bar\[24\]
*287 mprj_dat_i_core_bar\[25\]
*288 mprj_dat_i_core_bar\[26\]
*289 mprj_dat_i_core_bar\[27\]
*290 mprj_dat_i_core_bar\[28\]
*291 mprj_dat_i_core_bar\[29\]
*292 mprj_dat_i_core_bar\[2\]
*293 mprj_dat_i_core_bar\[30\]
*294 mprj_dat_i_core_bar\[31\]
*295 mprj_dat_i_core_bar\[3\]
*296 mprj_dat_i_core_bar\[4\]
*297 mprj_dat_i_core_bar\[5\]
*298 mprj_dat_i_core_bar\[6\]
*299 mprj_dat_i_core_bar\[7\]
*300 mprj_dat_i_core_bar\[8\]
*301 mprj_dat_i_core_bar\[9\]
*302 mprj_logic1\[0\]
*303 mprj_logic1\[10\]
*304 mprj_logic1\[11\]
*305 mprj_logic1\[12\]
*306 mprj_logic1\[13\]
*307 mprj_logic1\[14\]
*308 mprj_logic1\[15\]
*309 mprj_logic1\[16\]
*310 mprj_logic1\[17\]
*311 mprj_logic1\[18\]
*312 mprj_logic1\[19\]
*313 mprj_logic1\[1\]
*314 mprj_logic1\[20\]
*315 mprj_logic1\[21\]
*316 mprj_logic1\[22\]
*317 mprj_logic1\[23\]
*318 mprj_logic1\[24\]
*319 mprj_logic1\[25\]
*320 mprj_logic1\[26\]
*321 mprj_logic1\[27\]
*322 mprj_logic1\[28\]
*323 mprj_logic1\[29\]
*324 mprj_logic1\[2\]
*325 mprj_logic1\[30\]
*326 mprj_logic1\[31\]
*327 mprj_logic1\[32\]
*328 mprj_logic1\[33\]
*329 mprj_logic1\[34\]
*330 mprj_logic1\[35\]
*331 mprj_logic1\[36\]
*332 mprj_logic1\[37\]
*333 mprj_logic1\[38\]
*334 mprj_logic1\[39\]
*335 mprj_logic1\[3\]
*336 mprj_logic1\[40\]
*337 mprj_logic1\[41\]
*338 mprj_logic1\[42\]
*339 mprj_logic1\[43\]
*340 mprj_logic1\[44\]
*341 mprj_logic1\[45\]
*342 mprj_logic1\[46\]
*343 mprj_logic1\[47\]
*344 mprj_logic1\[48\]
*345 mprj_logic1\[49\]
*346 mprj_logic1\[4\]
*347 mprj_logic1\[50\]
*348 mprj_logic1\[51\]
*349 mprj_logic1\[52\]
*350 mprj_logic1\[53\]
*351 mprj_logic1\[54\]
*352 mprj_logic1\[55\]
*353 mprj_logic1\[56\]
*354 mprj_logic1\[57\]
*355 mprj_logic1\[58\]
*356 mprj_logic1\[59\]
*357 mprj_logic1\[5\]
*358 mprj_logic1\[60\]
*359 mprj_logic1\[61\]
*360 mprj_logic1\[62\]
*361 mprj_logic1\[63\]
*362 mprj_logic1\[64\]
*363 mprj_logic1\[65\]
*364 mprj_logic1\[66\]
*365 mprj_logic1\[67\]
*366 mprj_logic1\[68\]
*367 mprj_logic1\[69\]
*368 mprj_logic1\[6\]
*369 mprj_logic1\[70\]
*370 mprj_logic1\[71\]
*371 mprj_logic1\[72\]
*372 mprj_logic1\[73\]
*373 mprj_logic1\[74\]
*374 mprj_logic1\[75\]
*375 mprj_logic1\[76\]
*376 mprj_logic1\[77\]
*377 mprj_logic1\[78\]
*378 mprj_logic1\[79\]
*379 mprj_logic1\[7\]
*380 mprj_logic1\[80\]
*381 mprj_logic1\[81\]
*382 mprj_logic1\[82\]
*383 mprj_logic1\[83\]
*384 mprj_logic1\[84\]
*385 mprj_logic1\[85\]
*386 mprj_logic1\[86\]
*387 mprj_logic1\[87\]
*388 mprj_logic1\[88\]
*389 mprj_logic1\[89\]
*390 mprj_logic1\[8\]
*391 mprj_logic1\[90\]
*392 mprj_logic1\[9\]
*393 net1
*394 net10
*395 net11
*396 net12
*397 net13
*398 net14
*399 net15
*400 net16
*401 net17
*402 net18
*403 net19
*404 net2
*405 net20
*406 net21
*407 net22
*408 net23
*409 net24
*410 net25
*411 net26
*412 net27
*413 net28
*414 net29
*415 net3
*416 net30
*417 net31
*418 net32
*419 net33
*420 net4
*421 net5
*422 net6
*423 net7
*424 net8
*425 net9
*426 user_irq_bar\[0\]
*427 user_irq_bar\[10\]
*428 user_irq_bar\[11\]
*429 user_irq_bar\[12\]
*430 user_irq_bar\[13\]
*431 user_irq_bar\[14\]
*432 user_irq_bar\[15\]
*433 user_irq_bar\[1\]
*434 user_irq_bar\[2\]
*435 user_irq_bar\[3\]
*436 user_irq_bar\[4\]
*437 user_irq_bar\[5\]
*438 user_irq_bar\[6\]
*439 user_irq_bar\[7\]
*440 user_irq_bar\[8\]
*441 user_irq_bar\[9\]
*442 user_irq_enable\[0\]
*443 user_irq_enable\[10\]
*444 user_irq_enable\[11\]
*445 user_irq_enable\[12\]
*446 user_irq_enable\[13\]
*447 user_irq_enable\[14\]
*448 user_irq_enable\[15\]
*449 user_irq_enable\[1\]
*450 user_irq_enable\[2\]
*451 user_irq_enable\[3\]
*452 user_irq_enable\[4\]
*453 user_irq_enable\[5\]
*454 user_irq_enable\[6\]
*455 user_irq_enable\[7\]
*456 user_irq_enable\[8\]
*457 user_irq_enable\[9\]
*458 ANTENNA__000__Y
*459 ANTENNA__001__Y
*460 ANTENNA__002__Y
*461 ANTENNA__003__Y
*462 ANTENNA__004__Y
*463 ANTENNA__005__Y
*464 ANTENNA__006__Y
*465 ANTENNA__007__Y
*466 ANTENNA__008__Y
*467 ANTENNA__009__Y
*468 ANTENNA__010__Y
*469 ANTENNA__011__Y
*470 ANTENNA__012__Y
*471 ANTENNA__013__Y
*472 ANTENNA__014__Y
*473 ANTENNA__015__Y
*474 ANTENNA__049__B
*475 ANTENNA__050__B
*476 ANTENNA__051__B
*477 ANTENNA__052__B
*478 ANTENNA__053__B
*479 ANTENNA__054__B
*480 ANTENNA__055__B
*481 ANTENNA__056__B
*482 ANTENNA__057__B
*483 ANTENNA__058__B
*484 ANTENNA__058__X
*485 ANTENNA__059__B
*486 ANTENNA__059__X
*487 ANTENNA__060__B
*488 ANTENNA__060__X
*489 ANTENNA__061__B
*490 ANTENNA__061__X
*491 ANTENNA__062__B
*492 ANTENNA__062__X
*493 ANTENNA__063__B
*494 ANTENNA__063__X
*495 ANTENNA__064__B
*496 ANTENNA__064__X
*497 ANTENNA__065__B
*498 ANTENNA__065__X
*499 ANTENNA__066__B
*500 ANTENNA__066__X
*501 ANTENNA__067__B
*502 ANTENNA__067__X
*503 ANTENNA__068__B
*504 ANTENNA__068__X
*505 ANTENNA__069__B
*506 ANTENNA__069__X
*507 ANTENNA__070__B
*508 ANTENNA__070__X
*509 ANTENNA__071__B
*510 ANTENNA__071__X
*511 ANTENNA__072__B
*512 ANTENNA__072__X
*513 ANTENNA__073__B
*514 ANTENNA__073__X
*515 ANTENNA__074__B
*516 ANTENNA__074__X
*517 ANTENNA__075__B
*518 ANTENNA__075__X
*519 ANTENNA__076__B
*520 ANTENNA__076__X
*521 ANTENNA__077__B
*522 ANTENNA__077__X
*523 ANTENNA__078__B
*524 ANTENNA__078__X
*525 ANTENNA__079__B
*526 ANTENNA__079__X
*527 ANTENNA__080__B
*528 ANTENNA__080__X
*529 ANTENNA__081__B
*530 ANTENNA__081__X
*531 ANTENNA__082__B
*532 ANTENNA__082__X
*533 ANTENNA__083__B
*534 ANTENNA__083__X
*535 ANTENNA__084__B
*536 ANTENNA__084__X
*537 ANTENNA__085__B
*538 ANTENNA__085__X
*539 ANTENNA__086__B
*540 ANTENNA__086__X
*541 ANTENNA__087__B
*542 ANTENNA__087__X
*543 ANTENNA__088__B
*544 ANTENNA__088__X
*545 ANTENNA__089__B
*546 ANTENNA__089__X
*547 ANTENNA__090__B
*548 ANTENNA__090__X
*549 ANTENNA__091__B
*550 ANTENNA__091__X
*551 ANTENNA__092__B
*552 ANTENNA__092__X
*553 ANTENNA__093__B
*554 ANTENNA__093__X
*555 ANTENNA__094__B
*556 ANTENNA__094__X
*557 ANTENNA__095__B
*558 ANTENNA__095__X
*559 ANTENNA__096__B
*560 ANTENNA__096__X
*561 ANTENNA__097__B
*562 ANTENNA__097__X
*563 ANTENNA__098__B
*564 ANTENNA__098__X
*565 ANTENNA__099__B
*566 ANTENNA__099__X
*567 ANTENNA__100__B
*568 ANTENNA__100__X
*569 ANTENNA__101__B
*570 ANTENNA__101__X
*571 ANTENNA__102__B
*572 ANTENNA__102__X
*573 ANTENNA__103__B
*574 ANTENNA__103__X
*575 ANTENNA__104__B
*576 ANTENNA__104__X
*577 ANTENNA__105__B
*578 ANTENNA__105__X
*579 ANTENNA__106__B
*580 ANTENNA__106__X
*581 ANTENNA__107__B
*582 ANTENNA__107__X
*583 ANTENNA__108__B
*584 ANTENNA__108__X
*585 ANTENNA__109__B
*586 ANTENNA__109__X
*587 ANTENNA__110__B
*588 ANTENNA__110__X
*589 ANTENNA__111__B
*590 ANTENNA__111__X
*591 ANTENNA__112__B
*592 ANTENNA__112__X
*593 ANTENNA__113__B
*594 ANTENNA__113__X
*595 ANTENNA__114__B
*596 ANTENNA__114__X
*597 ANTENNA__115__B
*598 ANTENNA__115__X
*599 ANTENNA__116__B
*600 ANTENNA__116__X
*601 ANTENNA__117__B
*602 ANTENNA__117__X
*603 ANTENNA__118__B
*604 ANTENNA__118__X
*605 ANTENNA__119__B
*606 ANTENNA__119__X
*607 ANTENNA__120__B
*608 ANTENNA__120__X
*609 ANTENNA__121__B
*610 ANTENNA__121__X
*611 ANTENNA__122__B
*612 ANTENNA__122__X
*613 ANTENNA__123__B
*614 ANTENNA__123__X
*615 ANTENNA__124__B
*616 ANTENNA__124__X
*617 ANTENNA__125__B
*618 ANTENNA__125__X
*619 ANTENNA__126__B
*620 ANTENNA__126__X
*621 ANTENNA__127__B
*622 ANTENNA__127__X
*623 ANTENNA__128__B
*624 ANTENNA__128__X
*625 ANTENNA__129__B
*626 ANTENNA__129__X
*627 ANTENNA__130__B
*628 ANTENNA__130__X
*629 ANTENNA__131__B
*630 ANTENNA__131__X
*631 ANTENNA__132__B
*632 ANTENNA__133__B
*633 ANTENNA__134__B
*634 ANTENNA__135__B
*635 ANTENNA__136__B
*636 ANTENNA__137__B
*637 ANTENNA__138__B
*638 ANTENNA__139__B
*639 ANTENNA_hreadyout_ack_gate_A
*640 ANTENNA_irq_gates\[0\]_A
*641 ANTENNA_irq_gates\[10\]_A
*642 ANTENNA_irq_gates\[11\]_A
*643 ANTENNA_irq_gates\[12\]_A
*644 ANTENNA_irq_gates\[13\]_A
*645 ANTENNA_irq_gates\[14\]_A
*646 ANTENNA_irq_gates\[15\]_A
*647 ANTENNA_irq_gates\[1\]_A
*648 ANTENNA_irq_gates\[2\]_A
*649 ANTENNA_irq_gates\[3\]_A
*650 ANTENNA_irq_gates\[4\]_A
*651 ANTENNA_irq_gates\[5\]_A
*652 ANTENNA_irq_gates\[6\]_A
*653 ANTENNA_irq_gates\[7\]_A
*654 ANTENNA_irq_gates\[8\]_A
*655 ANTENNA_irq_gates\[9\]_A
*656 ANTENNA_output10_X
*657 ANTENNA_output11_X
*658 ANTENNA_output12_X
*659 ANTENNA_output13_X
*660 ANTENNA_output14_X
*661 ANTENNA_output15_X
*662 ANTENNA_output16_X
*663 ANTENNA_output17_X
*664 ANTENNA_output18_X
*665 ANTENNA_output19_X
*666 ANTENNA_output1_X
*667 ANTENNA_output20_X
*668 ANTENNA_output21_X
*669 ANTENNA_output22_X
*670 ANTENNA_output23_X
*671 ANTENNA_output24_X
*672 ANTENNA_output25_X
*673 ANTENNA_output26_X
*674 ANTENNA_output27_X
*675 ANTENNA_output28_X
*676 ANTENNA_output29_X
*677 ANTENNA_output2_X
*678 ANTENNA_output30_X
*679 ANTENNA_output31_X
*680 ANTENNA_output32_X
*681 ANTENNA_output33_X
*682 ANTENNA_output3_X
*683 ANTENNA_output4_X
*684 ANTENNA_output5_X
*685 ANTENNA_output6_X
*686 ANTENNA_output7_X
*687 ANTENNA_output8_X
*688 ANTENNA_output9_X
*689 ANTENNA_wb_hrdata_gates\[0\]_A
*690 ANTENNA_wb_hrdata_gates\[10\]_A
*691 ANTENNA_wb_hrdata_gates\[11\]_A
*692 ANTENNA_wb_hrdata_gates\[12\]_A
*693 ANTENNA_wb_hrdata_gates\[13\]_A
*694 ANTENNA_wb_hrdata_gates\[14\]_A
*695 ANTENNA_wb_hrdata_gates\[15\]_A
*696 ANTENNA_wb_hrdata_gates\[16\]_A
*697 ANTENNA_wb_hrdata_gates\[17\]_A
*698 ANTENNA_wb_hrdata_gates\[18\]_A
*699 ANTENNA_wb_hrdata_gates\[19\]_A
*700 ANTENNA_wb_hrdata_gates\[1\]_A
*701 ANTENNA_wb_hrdata_gates\[20\]_A
*702 ANTENNA_wb_hrdata_gates\[21\]_A
*703 ANTENNA_wb_hrdata_gates\[22\]_A
*704 ANTENNA_wb_hrdata_gates\[23\]_A
*705 ANTENNA_wb_hrdata_gates\[24\]_A
*706 ANTENNA_wb_hrdata_gates\[25\]_A
*707 ANTENNA_wb_hrdata_gates\[26\]_A
*708 ANTENNA_wb_hrdata_gates\[27\]_A
*709 ANTENNA_wb_hrdata_gates\[28\]_A
*710 ANTENNA_wb_hrdata_gates\[29\]_A
*711 ANTENNA_wb_hrdata_gates\[2\]_A
*712 ANTENNA_wb_hrdata_gates\[30\]_A
*713 ANTENNA_wb_hrdata_gates\[31\]_A
*714 ANTENNA_wb_hrdata_gates\[3\]_A
*715 ANTENNA_wb_hrdata_gates\[4\]_A
*716 ANTENNA_wb_hrdata_gates\[5\]_A
*717 ANTENNA_wb_hrdata_gates\[6\]_A
*718 ANTENNA_wb_hrdata_gates\[7\]_A
*719 ANTENNA_wb_hrdata_gates\[8\]_A
*720 ANTENNA_wb_hrdata_gates\[9\]_A
*721 FILLER_0_109
*722 FILLER_0_113
*723 FILLER_0_125
*724 FILLER_0_137
*725 FILLER_0_141
*726 FILLER_0_15
*727 FILLER_0_153
*728 FILLER_0_165
*729 FILLER_0_169
*730 FILLER_0_181
*731 FILLER_0_193
*732 FILLER_0_197
*733 FILLER_0_209
*734 FILLER_0_221
*735 FILLER_0_225
*736 FILLER_0_237
*737 FILLER_0_243
*738 FILLER_0_27
*739 FILLER_0_29
*740 FILLER_0_3
*741 FILLER_0_356
*742 FILLER_0_41
*743 FILLER_0_459
*744 FILLER_0_53
*745 FILLER_0_57
*746 FILLER_0_69
*747 FILLER_0_81
*748 FILLER_0_85
*749 FILLER_0_97
*750 FILLER_10_108
*751 FILLER_10_15
*752 FILLER_10_27
*753 FILLER_10_29
*754 FILLER_10_3
*755 FILLER_10_351
*756 FILLER_10_361
*757 FILLER_10_379
*758 FILLER_10_387
*759 FILLER_10_399
*760 FILLER_10_41
*761 FILLER_10_411
*762 FILLER_10_423
*763 FILLER_10_431
*764 FILLER_10_433
*765 FILLER_10_445
*766 FILLER_10_457
*767 FILLER_10_53
*768 FILLER_10_57
*769 FILLER_10_69
*770 FILLER_10_72
*771 FILLER_10_77
*772 FILLER_10_81
*773 FILLER_10_91
*774 FILLER_11_115
*775 FILLER_11_15
*776 FILLER_11_27
*777 FILLER_11_3
*778 FILLER_11_351
*779 FILLER_11_361
*780 FILLER_11_375
*781 FILLER_11_387
*782 FILLER_11_39
*783 FILLER_11_399
*784 FILLER_11_403
*785 FILLER_11_405
*786 FILLER_11_417
*787 FILLER_11_429
*788 FILLER_11_441
*789 FILLER_11_453
*790 FILLER_11_459
*791 FILLER_11_461
*792 FILLER_11_55
*793 FILLER_11_79
*794 FILLER_12_110
*795 FILLER_12_15
*796 FILLER_12_27
*797 FILLER_12_29
*798 FILLER_12_3
*799 FILLER_12_360
*800 FILLER_12_372
*801 FILLER_12_377
*802 FILLER_12_389
*803 FILLER_12_401
*804 FILLER_12_413
*805 FILLER_12_425
*806 FILLER_12_431
*807 FILLER_12_433
*808 FILLER_12_445
*809 FILLER_12_457
*810 FILLER_13_115
*811 FILLER_13_15
*812 FILLER_13_27
*813 FILLER_13_3
*814 FILLER_13_351
*815 FILLER_13_363
*816 FILLER_13_375
*817 FILLER_13_387
*818 FILLER_13_39
*819 FILLER_13_399
*820 FILLER_13_403
*821 FILLER_13_405
*822 FILLER_13_417
*823 FILLER_13_429
*824 FILLER_13_441
*825 FILLER_13_453
*826 FILLER_13_459
*827 FILLER_13_461
*828 FILLER_13_53
*829 FILLER_13_64
*830 FILLER_14_15
*831 FILLER_14_176
*832 FILLER_14_195
*833 FILLER_14_197
*834 FILLER_14_219
*835 FILLER_14_225
*836 FILLER_14_251
*837 FILLER_14_27
*838 FILLER_14_29
*839 FILLER_14_292
*840 FILLER_14_3
*841 FILLER_14_304
*842 FILLER_14_309
*843 FILLER_14_321
*844 FILLER_14_333
*845 FILLER_14_337
*846 FILLER_14_349
*847 FILLER_14_361
*848 FILLER_14_365
*849 FILLER_14_377
*850 FILLER_14_389
*851 FILLER_14_393
*852 FILLER_14_405
*853 FILLER_14_41
*854 FILLER_14_417
*855 FILLER_14_421
*856 FILLER_14_433
*857 FILLER_14_445
*858 FILLER_14_449
*859 FILLER_14_461
*860 FILLER_14_53
*861 FILLER_14_59
*862 FILLER_14_63
*863 FILLER_14_66
*864 FILLER_14_69
*865 FILLER_14_75
*866 FILLER_14_80
*867 FILLER_14_89
*868 FILLER_14_93
*869 FILLER_14_98
*870 FILLER_15_105
*871 FILLER_15_15
*872 FILLER_15_167
*873 FILLER_15_225
*874 FILLER_15_240
*875 FILLER_15_264
*876 FILLER_15_27
*877 FILLER_15_279
*878 FILLER_15_290
*879 FILLER_15_3
*880 FILLER_15_302
*881 FILLER_15_314
*882 FILLER_15_326
*883 FILLER_15_334
*884 FILLER_15_337
*885 FILLER_15_349
*886 FILLER_15_361
*887 FILLER_15_373
*888 FILLER_15_385
*889 FILLER_15_39
*890 FILLER_15_391
*891 FILLER_15_393
*892 FILLER_15_405
*893 FILLER_15_417
*894 FILLER_15_429
*895 FILLER_15_441
*896 FILLER_15_447
*897 FILLER_15_449
*898 FILLER_15_461
*899 FILLER_15_51
*900 FILLER_15_55
*901 FILLER_15_57
*902 FILLER_15_69
*903 FILLER_15_81
*904 FILLER_15_93
*905 FILLER_16_109
*906 FILLER_16_121
*907 FILLER_16_133
*908 FILLER_16_139
*909 FILLER_16_143
*910 FILLER_16_146
*911 FILLER_16_15
*912 FILLER_16_154
*913 FILLER_16_216
*914 FILLER_16_230
*915 FILLER_16_237
*916 FILLER_16_243
*917 FILLER_16_251
*918 FILLER_16_261
*919 FILLER_16_266
*920 FILLER_16_27
*921 FILLER_16_274
*922 FILLER_16_286
*923 FILLER_16_29
*924 FILLER_16_298
*925 FILLER_16_3
*926 FILLER_16_306
*927 FILLER_16_309
*928 FILLER_16_321
*929 FILLER_16_333
*930 FILLER_16_345
*931 FILLER_16_357
*932 FILLER_16_363
*933 FILLER_16_365
*934 FILLER_16_377
*935 FILLER_16_389
*936 FILLER_16_401
*937 FILLER_16_41
*938 FILLER_16_413
*939 FILLER_16_419
*940 FILLER_16_421
*941 FILLER_16_433
*942 FILLER_16_445
*943 FILLER_16_457
*944 FILLER_16_53
*945 FILLER_16_65
*946 FILLER_16_77
*947 FILLER_16_83
*948 FILLER_16_85
*949 FILLER_16_97
*950 FILLER_17_105
*951 FILLER_17_111
*952 FILLER_17_113
*953 FILLER_17_125
*954 FILLER_17_137
*955 FILLER_17_147
*956 FILLER_17_15
*957 FILLER_17_157
*958 FILLER_17_165
*959 FILLER_17_171
*960 FILLER_17_175
*961 FILLER_17_182
*962 FILLER_17_191
*963 FILLER_17_194
*964 FILLER_17_200
*965 FILLER_17_203
*966 FILLER_17_207
*967 FILLER_17_212
*968 FILLER_17_223
*969 FILLER_17_227
*970 FILLER_17_239
*971 FILLER_17_251
*972 FILLER_17_259
*973 FILLER_17_267
*974 FILLER_17_27
*975 FILLER_17_279
*976 FILLER_17_281
*977 FILLER_17_3
*978 FILLER_17_302
*979 FILLER_17_308
*980 FILLER_17_319
*981 FILLER_17_325
*982 FILLER_17_344
*983 FILLER_17_356
*984 FILLER_17_368
*985 FILLER_17_380
*986 FILLER_17_39
*987 FILLER_17_393
*988 FILLER_17_405
*989 FILLER_17_417
*990 FILLER_17_429
*991 FILLER_17_441
*992 FILLER_17_447
*993 FILLER_17_449
*994 FILLER_17_461
*995 FILLER_17_51
*996 FILLER_17_55
*997 FILLER_17_57
*998 FILLER_17_69
*999 FILLER_17_81
*1000 FILLER_17_93
*1001 FILLER_18_109
*1002 FILLER_18_121
*1003 FILLER_18_133
*1004 FILLER_18_139
*1005 FILLER_18_141
*1006 FILLER_18_15
*1007 FILLER_18_153
*1008 FILLER_18_165
*1009 FILLER_18_177
*1010 FILLER_18_189
*1011 FILLER_18_195
*1012 FILLER_18_197
*1013 FILLER_18_209
*1014 FILLER_18_221
*1015 FILLER_18_233
*1016 FILLER_18_245
*1017 FILLER_18_251
*1018 FILLER_18_253
*1019 FILLER_18_27
*1020 FILLER_18_274
*1021 FILLER_18_286
*1022 FILLER_18_29
*1023 FILLER_18_299
*1024 FILLER_18_3
*1025 FILLER_18_307
*1026 FILLER_18_309
*1027 FILLER_18_321
*1028 FILLER_18_333
*1029 FILLER_18_341
*1030 FILLER_18_347
*1031 FILLER_18_359
*1032 FILLER_18_363
*1033 FILLER_18_365
*1034 FILLER_18_377
*1035 FILLER_18_389
*1036 FILLER_18_401
*1037 FILLER_18_41
*1038 FILLER_18_413
*1039 FILLER_18_419
*1040 FILLER_18_421
*1041 FILLER_18_433
*1042 FILLER_18_445
*1043 FILLER_18_457
*1044 FILLER_18_53
*1045 FILLER_18_65
*1046 FILLER_18_77
*1047 FILLER_18_83
*1048 FILLER_18_85
*1049 FILLER_18_97
*1050 FILLER_19_109
*1051 FILLER_19_113
*1052 FILLER_19_125
*1053 FILLER_19_137
*1054 FILLER_19_141
*1055 FILLER_19_15
*1056 FILLER_19_153
*1057 FILLER_19_165
*1058 FILLER_19_169
*1059 FILLER_19_181
*1060 FILLER_19_193
*1061 FILLER_19_197
*1062 FILLER_19_209
*1063 FILLER_19_221
*1064 FILLER_19_225
*1065 FILLER_19_237
*1066 FILLER_19_249
*1067 FILLER_19_253
*1068 FILLER_19_262
*1069 FILLER_19_27
*1070 FILLER_19_270
*1071 FILLER_19_275
*1072 FILLER_19_279
*1073 FILLER_19_29
*1074 FILLER_19_290
*1075 FILLER_19_296
*1076 FILLER_19_3
*1077 FILLER_19_313
*1078 FILLER_19_335
*1079 FILLER_19_342
*1080 FILLER_19_367
*1081 FILLER_19_379
*1082 FILLER_19_391
*1083 FILLER_19_393
*1084 FILLER_19_405
*1085 FILLER_19_41
*1086 FILLER_19_417
*1087 FILLER_19_421
*1088 FILLER_19_433
*1089 FILLER_19_445
*1090 FILLER_19_449
*1091 FILLER_19_461
*1092 FILLER_19_53
*1093 FILLER_19_57
*1094 FILLER_19_69
*1095 FILLER_19_81
*1096 FILLER_19_85
*1097 FILLER_19_97
*1098 FILLER_1_105
*1099 FILLER_1_111
*1100 FILLER_1_113
*1101 FILLER_1_125
*1102 FILLER_1_137
*1103 FILLER_1_149
*1104 FILLER_1_15
*1105 FILLER_1_161
*1106 FILLER_1_167
*1107 FILLER_1_169
*1108 FILLER_1_181
*1109 FILLER_1_193
*1110 FILLER_1_205
*1111 FILLER_1_217
*1112 FILLER_1_223
*1113 FILLER_1_225
*1114 FILLER_1_237
*1115 FILLER_1_27
*1116 FILLER_1_275
*1117 FILLER_1_279
*1118 FILLER_1_3
*1119 FILLER_1_39
*1120 FILLER_1_447
*1121 FILLER_1_455
*1122 FILLER_1_463
*1123 FILLER_1_51
*1124 FILLER_1_55
*1125 FILLER_1_57
*1126 FILLER_1_69
*1127 FILLER_1_81
*1128 FILLER_1_93
*1129 FILLER_2_109
*1130 FILLER_2_121
*1131 FILLER_2_133
*1132 FILLER_2_139
*1133 FILLER_2_141
*1134 FILLER_2_15
*1135 FILLER_2_153
*1136 FILLER_2_165
*1137 FILLER_2_177
*1138 FILLER_2_189
*1139 FILLER_2_195
*1140 FILLER_2_197
*1141 FILLER_2_209
*1142 FILLER_2_221
*1143 FILLER_2_233
*1144 FILLER_2_245
*1145 FILLER_2_251
*1146 FILLER_2_253
*1147 FILLER_2_27
*1148 FILLER_2_29
*1149 FILLER_2_3
*1150 FILLER_2_41
*1151 FILLER_2_445
*1152 FILLER_2_457
*1153 FILLER_2_53
*1154 FILLER_2_65
*1155 FILLER_2_77
*1156 FILLER_2_83
*1157 FILLER_2_85
*1158 FILLER_2_97
*1159 FILLER_3_105
*1160 FILLER_3_111
*1161 FILLER_3_113
*1162 FILLER_3_125
*1163 FILLER_3_137
*1164 FILLER_3_149
*1165 FILLER_3_15
*1166 FILLER_3_161
*1167 FILLER_3_167
*1168 FILLER_3_169
*1169 FILLER_3_181
*1170 FILLER_3_193
*1171 FILLER_3_205
*1172 FILLER_3_217
*1173 FILLER_3_223
*1174 FILLER_3_225
*1175 FILLER_3_237
*1176 FILLER_3_249
*1177 FILLER_3_257
*1178 FILLER_3_27
*1179 FILLER_3_3
*1180 FILLER_3_335
*1181 FILLER_3_39
*1182 FILLER_3_436
*1183 FILLER_3_449
*1184 FILLER_3_461
*1185 FILLER_3_51
*1186 FILLER_3_55
*1187 FILLER_3_57
*1188 FILLER_3_69
*1189 FILLER_3_81
*1190 FILLER_3_93
*1191 FILLER_4_109
*1192 FILLER_4_113
*1193 FILLER_4_125
*1194 FILLER_4_137
*1195 FILLER_4_141
*1196 FILLER_4_15
*1197 FILLER_4_153
*1198 FILLER_4_165
*1199 FILLER_4_169
*1200 FILLER_4_181
*1201 FILLER_4_193
*1202 FILLER_4_197
*1203 FILLER_4_209
*1204 FILLER_4_221
*1205 FILLER_4_225
*1206 FILLER_4_237
*1207 FILLER_4_249
*1208 FILLER_4_253
*1209 FILLER_4_265
*1210 FILLER_4_27
*1211 FILLER_4_273
*1212 FILLER_4_29
*1213 FILLER_4_3
*1214 FILLER_4_301
*1215 FILLER_4_391
*1216 FILLER_4_41
*1217 FILLER_4_419
*1218 FILLER_4_421
*1219 FILLER_4_433
*1220 FILLER_4_445
*1221 FILLER_4_449
*1222 FILLER_4_461
*1223 FILLER_4_53
*1224 FILLER_4_57
*1225 FILLER_4_69
*1226 FILLER_4_81
*1227 FILLER_4_85
*1228 FILLER_4_97
*1229 FILLER_5_105
*1230 FILLER_5_111
*1231 FILLER_5_113
*1232 FILLER_5_117
*1233 FILLER_5_15
*1234 FILLER_5_27
*1235 FILLER_5_3
*1236 FILLER_5_39
*1237 FILLER_5_403
*1238 FILLER_5_411
*1239 FILLER_5_423
*1240 FILLER_5_435
*1241 FILLER_5_447
*1242 FILLER_5_459
*1243 FILLER_5_461
*1244 FILLER_5_51
*1245 FILLER_5_55
*1246 FILLER_5_57
*1247 FILLER_5_69
*1248 FILLER_5_81
*1249 FILLER_5_93
*1250 FILLER_6_109
*1251 FILLER_6_117
*1252 FILLER_6_15
*1253 FILLER_6_27
*1254 FILLER_6_29
*1255 FILLER_6_3
*1256 FILLER_6_357
*1257 FILLER_6_379
*1258 FILLER_6_384
*1259 FILLER_6_400
*1260 FILLER_6_41
*1261 FILLER_6_412
*1262 FILLER_6_424
*1263 FILLER_6_433
*1264 FILLER_6_445
*1265 FILLER_6_457
*1266 FILLER_6_53
*1267 FILLER_6_65
*1268 FILLER_6_77
*1269 FILLER_6_83
*1270 FILLER_6_85
*1271 FILLER_6_97
*1272 FILLER_7_105
*1273 FILLER_7_111
*1274 FILLER_7_113
*1275 FILLER_7_117
*1276 FILLER_7_15
*1277 FILLER_7_27
*1278 FILLER_7_3
*1279 FILLER_7_354
*1280 FILLER_7_366
*1281 FILLER_7_369
*1282 FILLER_7_383
*1283 FILLER_7_39
*1284 FILLER_7_395
*1285 FILLER_7_403
*1286 FILLER_7_405
*1287 FILLER_7_417
*1288 FILLER_7_429
*1289 FILLER_7_441
*1290 FILLER_7_453
*1291 FILLER_7_459
*1292 FILLER_7_461
*1293 FILLER_7_51
*1294 FILLER_7_55
*1295 FILLER_7_57
*1296 FILLER_7_69
*1297 FILLER_7_81
*1298 FILLER_7_93
*1299 FILLER_8_109
*1300 FILLER_8_117
*1301 FILLER_8_15
*1302 FILLER_8_27
*1303 FILLER_8_29
*1304 FILLER_8_3
*1305 FILLER_8_359
*1306 FILLER_8_363
*1307 FILLER_8_366
*1308 FILLER_8_374
*1309 FILLER_8_377
*1310 FILLER_8_385
*1311 FILLER_8_391
*1312 FILLER_8_403
*1313 FILLER_8_41
*1314 FILLER_8_415
*1315 FILLER_8_427
*1316 FILLER_8_431
*1317 FILLER_8_433
*1318 FILLER_8_445
*1319 FILLER_8_457
*1320 FILLER_8_53
*1321 FILLER_8_65
*1322 FILLER_8_77
*1323 FILLER_8_83
*1324 FILLER_8_85
*1325 FILLER_8_97
*1326 FILLER_9_104
*1327 FILLER_9_107
*1328 FILLER_9_110
*1329 FILLER_9_113
*1330 FILLER_9_15
*1331 FILLER_9_27
*1332 FILLER_9_3
*1333 FILLER_9_351
*1334 FILLER_9_363
*1335 FILLER_9_375
*1336 FILLER_9_387
*1337 FILLER_9_39
*1338 FILLER_9_399
*1339 FILLER_9_403
*1340 FILLER_9_405
*1341 FILLER_9_417
*1342 FILLER_9_429
*1343 FILLER_9_441
*1344 FILLER_9_453
*1345 FILLER_9_459
*1346 FILLER_9_461
*1347 FILLER_9_51
*1348 FILLER_9_55
*1349 FILLER_9_57
*1350 FILLER_9_69
*1351 FILLER_9_81
*1352 FILLER_9_93
*1353 PHY_EDGE_ROW_0_Left_20
*1354 PHY_EDGE_ROW_0_Right_0
*1355 PHY_EDGE_ROW_10_1_Left_29
*1356 PHY_EDGE_ROW_10_1_Right_53
*1357 PHY_EDGE_ROW_10_2_Left_45
*1358 PHY_EDGE_ROW_10_2_Right_16
*1359 PHY_EDGE_ROW_11_1_Left_30
*1360 PHY_EDGE_ROW_11_1_Right_54
*1361 PHY_EDGE_ROW_11_2_Left_46
*1362 PHY_EDGE_ROW_11_2_Right_17
*1363 PHY_EDGE_ROW_12_1_Left_31
*1364 PHY_EDGE_ROW_12_1_Right_55
*1365 PHY_EDGE_ROW_12_2_Left_47
*1366 PHY_EDGE_ROW_12_2_Right_18
*1367 PHY_EDGE_ROW_13_1_Left_32
*1368 PHY_EDGE_ROW_13_1_Right_56
*1369 PHY_EDGE_ROW_13_2_Left_48
*1370 PHY_EDGE_ROW_13_2_Right_19
*1371 PHY_EDGE_ROW_14_Left_33
*1372 PHY_EDGE_ROW_14_Right_5
*1373 PHY_EDGE_ROW_15_Left_34
*1374 PHY_EDGE_ROW_15_Right_6
*1375 PHY_EDGE_ROW_16_Left_35
*1376 PHY_EDGE_ROW_16_Right_7
*1377 PHY_EDGE_ROW_17_Left_36
*1378 PHY_EDGE_ROW_17_Right_8
*1379 PHY_EDGE_ROW_18_Left_37
*1380 PHY_EDGE_ROW_18_Right_9
*1381 PHY_EDGE_ROW_19_Left_38
*1382 PHY_EDGE_ROW_19_Right_10
*1383 PHY_EDGE_ROW_1_Left_21
*1384 PHY_EDGE_ROW_1_Right_1