*SPEF "ieee 1481-1999"
*DESIGN "vccd1_tie_high"
*DATE "19:59:08 Monday June 16, 2025"
*VENDOR "The OpenROAD Project"
*PROGRAM "OpenROAD"
*VERSION "edf00dff99f6c40d67a30c0e22a8191c5d2ed9d6"
*DESIGN_FLOW "NAME_SCOPE LOCAL" "PIN_CAP NONE"
*DIVIDER /
*DELIMITER :
*BUS_DELIMITER []
*T_UNIT 1 NS
*C_UNIT 1 PF
*R_UNIT 1 OHM
*L_UNIT 1 HENRY

*NAME_MAP
*1 net1
*2 net2
*3 net3
*4 net4
*5 net5
*6 net6
*7 net7
*8 net8
*9 net9
*10 net10
*11 net11
*12 net12
*13 net13
*14 net14
*15 net15
*16 net16
*17 net17
*18 net18
*19 net19
*20 net20
*21 net21
*22 net22
*23 net23
*24 net24
*25 net25
*26 net26
*27 net27
*28 net28
*29 net29
*30 net30
*31 net31
*32 net32
*33 net33
*34 net34
*35 net35
*36 net36
*37 net37
*38 net38
*39 net39
*40 net40
*41 net41
*42 net42
*43 net43
*44 net44
*45 net45
*46 net46
*47 net47
*48 net48
*49 net49
*50 net50
*51 net51
*52 net52
*53 net53
*54 net54
*55 net55
*56 net56
*57 net57
*58 net58
*59 net59
*60 net60
*61 net61
*62 net62
*63 net63
*64 net64
*65 net65
*66 net66
*67 net67
*68 net68
*69 net69
*70 net70
*71 net71
*72 net72
*73 net73
*74 net74
*75 net75
*76 net76
*77 net77
*78 net78
*79 net79
*80 net80
*81 net81
*82 net82
*83 net83
*84 net84
*85 net85
*86 net86
*87 net87
*88 net88
*89 net89
*90 net90
*91 net91
*92 ANTENNA_vccd1_tie_high_10_HI
*93 ANTENNA_vccd1_tie_high_11_HI
*94 ANTENNA_vccd1_tie_high_12_HI
*95 ANTENNA_vccd1_tie_high_13_HI
*96 ANTENNA_vccd1_tie_high_14_HI
*97 ANTENNA_vccd1_tie_high_15_HI
*98 ANTENNA_vccd1_tie_high_16_HI
*99 ANTENNA_vccd1_tie_high_17_HI
*100 ANTENNA_vccd1_tie_high_18_HI
*101 ANTENNA_vccd1_tie_high_19_HI
*102 ANTENNA_vccd1_tie_high_1_HI
*103 ANTENNA_vccd1_tie_high_20_HI
*104 ANTENNA_vccd1_tie_high_21_HI
*105 ANTENNA_vccd1_tie_high_22_HI
*106 ANTENNA_vccd1_tie_high_23_HI
*107 ANTENNA_vccd1_tie_high_24_HI
*108 ANTENNA_vccd1_tie_high_25_HI
*109 ANTENNA_vccd1_tie_high_26_HI
*110 ANTENNA_vccd1_tie_high_27_HI
*111 ANTENNA_vccd1_tie_high_28_HI
*112 ANTENNA_vccd1_tie_high_29_HI
*113 ANTENNA_vccd1_tie_high_2_HI
*114 ANTENNA_vccd1_tie_high_30_HI
*115 ANTENNA_vccd1_tie_high_31_HI
*116 ANTENNA_vccd1_tie_high_32_HI
*117 ANTENNA_vccd1_tie_high_33_HI
*118 ANTENNA_vccd1_tie_high_34_HI
*119 ANTENNA_vccd1_tie_high_35_HI
*120 ANTENNA_vccd1_tie_high_36_HI
*121 ANTENNA_vccd1_tie_high_37_HI
*122 ANTENNA_vccd1_tie_high_38_HI
*123 ANTENNA_vccd1_tie_high_39_HI
*124 ANTENNA_vccd1_tie_high_3_HI
*125 ANTENNA_vccd1_tie_high_40_HI
*126 ANTENNA_vccd1_tie_high_41_HI
*127 ANTENNA_vccd1_tie_high_42_HI
*128 ANTENNA_vccd1_tie_high_43_HI
*129 ANTENNA_vccd1_tie_high_44_HI
*130 ANTENNA_vccd1_tie_high_45_HI
*131 ANTENNA_vccd1_tie_high_46_HI
*132 ANTENNA_vccd1_tie_high_47_HI
*133 ANTENNA_vccd1_tie_high_48_HI
*134 ANTENNA_vccd1_tie_high_49_HI
*135 ANTENNA_vccd1_tie_high_4_HI
*136 ANTENNA_vccd1_tie_high_50_HI
*137 ANTENNA_vccd1_tie_high_51_HI
*138 ANTENNA_vccd1_tie_high_52_HI
*139 ANTENNA_vccd1_tie_high_53_HI
*140 ANTENNA_vccd1_tie_high_54_HI
*141 ANTENNA_vccd1_tie_high_55_HI
*142 ANTENNA_vccd1_tie_high_56_HI
*143 ANTENNA_vccd1_tie_high_57_HI
*144 ANTENNA_vccd1_tie_high_58_HI
*145 ANTENNA_vccd1_tie_high_59_HI
*146 ANTENNA_vccd1_tie_high_5_HI
*147 ANTENNA_vccd1_tie_high_60_HI
*148 ANTENNA_vccd1_tie_high_61_HI
*149 ANTENNA_vccd1_tie_high_62_HI
*150 ANTENNA_vccd1_tie_high_63_HI
*151 ANTENNA_vccd1_tie_high_64_HI
*152 ANTENNA_vccd1_tie_high_65_HI
*153 ANTENNA_vccd1_tie_high_66_HI
*154 ANTENNA_vccd1_tie_high_67_HI
*155 ANTENNA_vccd1_tie_high_68_HI
*156 ANTENNA_vccd1_tie_high_69_HI
*157 ANTENNA_vccd1_tie_high_6_HI
*158 ANTENNA_vccd1_tie_high_70_HI
*159 ANTENNA_vccd1_tie_high_71_HI
*160 ANTENNA_vccd1_tie_high_72_HI
*161 ANTENNA_vccd1_tie_high_73_HI
*162 ANTENNA_vccd1_tie_high_74_HI
*163 ANTENNA_vccd1_tie_high_75_HI
*164 ANTENNA_vccd1_tie_high_76_HI
*165 ANTENNA_vccd1_tie_high_77_HI
*166 ANTENNA_vccd1_tie_high_78_HI
*167 ANTENNA_vccd1_tie_high_79_HI
*168 ANTENNA_vccd1_tie_high_7_HI
*169 ANTENNA_vccd1_tie_high_80_HI
*170 ANTENNA_vccd1_tie_high_81_HI
*171 ANTENNA_vccd1_tie_high_82_HI
*172 ANTENNA_vccd1_tie_high_83_HI
*173 ANTENNA_vccd1_tie_high_84_HI
*174 ANTENNA_vccd1_tie_high_85_HI
*175 ANTENNA_vccd1_tie_high_86_HI
*176 ANTENNA_vccd1_tie_high_87_HI
*177 ANTENNA_vccd1_tie_high_88_HI
*178 ANTENNA_vccd1_tie_high_89_HI
*179 ANTENNA_vccd1_tie_high_8_HI
*180 ANTENNA_vccd1_tie_high_90_HI
*181 ANTENNA_vccd1_tie_high_91_HI
*182 ANTENNA_vccd1_tie_high_9_HI
*183 FILLER_0_101
*184 FILLER_0_104
*185 FILLER_0_107
*186 FILLER_0_110
*187 FILLER_0_113
*188 FILLER_0_116
*189 FILLER_0_119
*190 FILLER_0_12
*191 FILLER_0_122
*192 FILLER_0_125
*193 FILLER_0_129
*194 FILLER_0_135
*195 FILLER_0_139
*196 FILLER_0_143
*197 FILLER_0_148
*198 FILLER_0_15
*199 FILLER_0_152
*200 FILLER_0_161
*201 FILLER_0_169
*202 FILLER_0_176
*203 FILLER_0_18
*204 FILLER_0_180
*205 FILLER_0_187
*206 FILLER_0_191
*207 FILLER_0_195
*208 FILLER_0_197
*209 FILLER_0_201
*210 FILLER_0_204
*211 FILLER_0_208
*212 FILLER_0_21
*213 FILLER_0_3
*214 FILLER_0_31
*215 FILLER_0_34
*216 FILLER_0_37
*217 FILLER_0_52
*218 FILLER_0_55
*219 FILLER_0_59
*220 FILLER_0_6
*221 FILLER_0_62
*222 FILLER_0_65
*223 FILLER_0_68
*224 FILLER_0_71
*225 FILLER_0_74
*226 FILLER_0_77
*227 FILLER_0_80
*228 FILLER_0_83
*229 FILLER_0_89
*230 FILLER_0_9
*231 FILLER_0_92
*232 FILLER_0_97
*233 FILLER_1_101
*234 FILLER_1_104
*235 FILLER_1_107
*236 FILLER_1_110
*237 FILLER_1_115
*238 FILLER_1_118
*239 FILLER_1_12
*240 FILLER_1_121
*241 FILLER_1_129
*242 FILLER_1_133
*243 FILLER_1_139
*244 FILLER_1_145
*245 FILLER_1_151
*246 FILLER_1_157
*247 FILLER_1_161
*248 FILLER_1_167
*249 FILLER_1_179
*250 FILLER_1_185
*251 FILLER_1_189
*252 FILLER_1_19
*253 FILLER_1_195
*254 FILLER_1_25
*255 FILLER_1_3
*256 FILLER_1_31
*257 FILLER_1_35
*258 FILLER_1_41
*259 FILLER_1_47
*260 FILLER_1_51
*261 FILLER_1_55
*262 FILLER_1_57
*263 FILLER_1_6
*264 FILLER_1_63
*265 FILLER_1_69
*266 FILLER_1_75
*267 FILLER_1_81
*268 FILLER_1_85
*269 FILLER_1_89
*270 FILLER_1_9
*271 FILLER_1_93
*272 FILLER_2_111
*273 FILLER_2_208
*274 FILLER_2_3
*275 FILLER_2_6
*276 PHY_EDGE_ROW_0_Left_3
*277 PHY_EDGE_ROW_0_Right_0
*278 PHY_EDGE_ROW_1_Left_4
*279 PHY_EDGE_ROW_1_Right_1
*280 PHY_EDGE_ROW_2_Left_5
*281 PHY_EDGE_ROW_2_Right_2
*282 TAP_TAPCELL_ROW_0_10
*283 TAP_TAPCELL_ROW_0_11
*284 TAP_TAPCELL_ROW_0_12
*285 TAP_TAPCELL_ROW_0_6
*286 TAP_TAPCELL_ROW_0_7
*287 TAP_TAPCELL_ROW_0_8
*288 TAP_TAPCELL_ROW_0_9
*289 TAP_TAPCELL_ROW_1_13
*290 TAP_TAPCELL_ROW_1_14
*291 TAP_TAPCELL_ROW_1_15
*292 TAP_TAPCELL_ROW_2_16
*293 TAP_TAPCELL_ROW_2_17
*294 TAP_TAPCELL_ROW_2_18
*295 TAP_TAPCELL_ROW_2_19
*296 TAP_TAPCELL_ROW_2_20
*297 TAP_TAPCELL_ROW_2_21
*298 TAP_TAPCELL_ROW_2_22
*299 vccd1_tie_high_1
*300 vccd1_tie_high_10
*301 vccd1_tie_high_11
*302 vccd1_tie_high_12
*303 vccd1_tie_high_13
*304 vccd1_tie_high_14
*305 vccd1_tie_high_15
*306 vccd1_tie_high_16
*307 vccd1_tie_high_17
*308 vccd1_tie_high_18
*309 vccd1_tie_high_19
*310 vccd1_tie_high_2
*311 vccd1_tie_high_20
*312 vccd1_tie_high_21
*313 vccd1_tie_high_22
*314 vccd1_tie_high_23
*315 vccd1_tie_high_24
*316 vccd1_tie_high_25
*317 vccd1_tie_high_26
*318 vccd1_tie_high_27
*319 vccd1_tie_high_28
*320 vccd1_tie_high_29
*321 vccd1_tie_high_3
*322 vccd1_tie_high_30
*323 vccd1_tie_high_31
*324 vccd1_tie_high_32
*325 vccd1_tie_high_33
*326 vccd1_tie_high_34
*327 vccd1_tie_high_35
*328 vccd1_tie_high_36
*329 vccd1_tie_high_37
*330 vccd1_tie_high_38
*331 vccd1_tie_high_39
*332 vccd1_tie_high_4
*333 vccd1_tie_high_40
*334 vccd1_tie_high_41
*335 vccd1_tie_high_42
*336 vccd1_tie_high_43
*337 vccd1_tie_high_44
*338 vccd1_tie_high_45
*339 vccd1_tie_high_46
*340 vccd1_tie_high_47
*341 vccd1_tie_high_48
*342 vccd1_tie_high_49
*343 vccd1_tie_high_5
*344 vccd1_tie_high_50
*345 vccd1_tie_high_51
*346 vccd1_tie_high_52
*347 vccd1_tie_high_53
*348 vccd1_tie_high_54
*349 vccd1_tie_high_55
*350 vccd1_tie_high_56
*351 vccd1_tie_high_57
*352 vccd1_tie_high_58
*353 vccd1_tie_high_59
*354 vccd1_tie_high_6
*355 vccd1_tie_high_60
*356 vccd1_tie_high_61
*357 vccd1_tie_high_62
*358 vccd1_tie_high_63
*359 vccd1_tie_high_64
*360 vccd1_tie_high_65
*361 vccd1_tie_high_66
*362 vccd1_tie_high_67
*363 vccd1_tie_high_68
*364 vccd1_tie_high_69
*365 vccd1_tie_high_7
*366 vccd1_tie_high_70
*367 vccd1_tie_high_71
*368 vccd1_tie_high_72
*369 vccd1_tie_high_73
*370 vccd1_tie_high_74
*371 vccd1_tie_high_75
*372 vccd1_tie_high_76
*373 vccd1_tie_high_77
*374 vccd1_tie_high_78
*375 vccd1_tie_high_79
*376 vccd1_tie_high_8
*377 vccd1_tie_high_80
*378 vccd1_tie_high_81
*379 vccd1_tie_high_82
*380 vccd1_tie_high_83
*381 vccd1_tie_high_84
*382 vccd1_tie_high_85
*383 vccd1_tie_high_86
*384 vccd1_tie_high_87
*385 vccd1_tie_high_88
*386 vccd1_tie_high_89
*387 vccd1_tie_high_9
*388 vccd1_tie_high_90
*389 vccd1_tie_high_91

*PORTS
HI[0] O
HI[10] O
HI[11] O
HI[12] O
HI[13] O
HI[14] O
HI[15] O
HI[16] O
HI[17] O
HI[18] O
HI[19] O
HI[1] O
HI[20] O
HI[21] O
HI[22] O
HI[23] O
HI[24] O
HI[25] O
HI[26] O
HI[27] O
HI[28] O
HI[29] O
HI[2] O
HI[30] O
HI[31] O
HI[32] O
HI[33] O
HI[34] O
HI[35] O
HI[36] O
HI[37] O
HI[38] O
HI[39] O
HI[3] O
HI[40] O
HI[41] O
HI[42] O
HI[43] O
HI[44] O
HI[45] O
HI[46] O
HI[47] O
HI[48] O
HI[49] O
HI[4] O
HI[50] O
HI[51] O
HI[52] O
HI[53] O
HI[54] O
HI[55] O
HI[56] O
HI[57] O
HI[58] O
HI[59] O
HI[5] O
HI[60] O
HI[61] O
HI[62] O
HI[63] O
HI[64] O
HI[65] O
HI[66] O
HI[67] O
HI[68] O
HI[69] O
HI[6] O
HI[70] O
HI[71] O
HI[72] O
HI[73] O
HI[74] O
HI[75] O
HI[76] O
HI[77] O
HI[78] O
HI[79] O
HI[7] O
HI[80] O
HI[81] O
HI[82] O
HI[83] O
HI[84] O
HI[85] O
HI[86] O
HI[87] O
HI[88] O
HI[89] O
HI[8] O
HI[90] O
HI[9] O

*D_NET *1 0.00134899
*CONN
*P HI[0] O
*I *102:DIODE I *D sky130_fd_sc_hd__diode_2
*I *299:HI O *D sky130_fd_sc_hd__conb_1
*CAP
1 HI[0] 0.000456178
2 *102:DIODE 0
3 *299:HI 5.84142e-05
4 *1:6 0.000514593
5 HI[0] HI[1] 0.000155513
6 HI[0] HI[2] 0
7 HI[0] *12:23 0.000164291
*RES
1 *299:HI *1:6 23.6214 
2 *1:6 HI[0] 22.9957 
3 *1:6 *102:DIODE 23 
*END

*D_NET *2 0.00154923
*CONN
*P HI[10] O
*I *113:DIODE I *D sky130_fd_sc_hd__diode_2
*I *310:HI O *D sky130_fd_sc_hd__conb_1
*CAP
1 HI[10] 0.000119129
2 *113:DIODE 0.000209314
3 *310:HI 4.29176e-05
4 *2:8 0.000371361
5 HI[10] HI[11] 0.000237046
6 HI[10] HI[9] 0.000232414
7 *113:DIODE HI[11] 6.26755e-05
8 *113:DIODE HI[9] 4.6318e-06
9 *113:DIODE *124:DIODE 0.000103535
10 *113:DIODE *181:DIODE 0.000166211
*RES
1 *310:HI *2:8 38.6214 
2 *2:8 *113:DIODE 43.075 
3 *2:8 HI[10] 5.88286 
*END

*D_NET *3 0.0018565
*CONN
*P HI[11] O
*I *124:DIODE I *D sky130_fd_sc_hd__diode_2
*I *321:HI O *D sky130_fd_sc_hd__conb_1
*CAP
1 HI[11] 0.000229837
2 *124:DIODE 0.00023808
3 *321:HI 4.63607e-05
4 *3:8 0.000514278
5 HI[11] HI[12] 0.000232414
6 HI[11] *135:DIODE 6.51641e-05
7 *124:DIODE *135:DIODE 9.7721e-05
8 *3:8 *146:DIODE 2.93845e-05
9 HI[10] HI[11] 0.000237046
10 *113:DIODE HI[11] 6.26755e-05
11 *113:DIODE *124:DIODE 0.000103535
*RES
1 *321:HI *3:8 38.6214 
2 *3:8 *124:DIODE 42.8886 
3 *3:8 HI[11] 7.99571 
*END

*D_NET *4 0.00166316
*CONN
*P HI[12] O
*I *135:DIODE I *D sky130_fd_sc_hd__diode_2
*I *332:HI O *D sky130_fd_sc_hd__conb_1
*CAP
1 HI[12] 0.000119129
2 *135:DIODE 0.000258419
3 *332:HI 6.50816e-05
4 *4:8 0.00044263
5 HI[12] HI[13] 0.000237046
6 *135:DIODE HI[13] 1.0402e-05
7 *135:DIODE *146:DIODE 7.98532e-05
8 *135:DIODE *157:DIODE 0
9 *4:8 *5:8 5.52998e-05
10 HI[11] HI[12] 0.000232414
11 HI[11] *135:DIODE 6.51641e-05
12 *124:DIODE *135:DIODE 9.7721e-05
*RES
1 *332:HI *4:8 39.0979 
2 *4:8 *135:DIODE 43.075 
3 *4:8 HI[12] 5.88286 
*END

*D_NET *5 0.00175402
*CONN
*P HI[13] O
*I *146:DIODE I *D sky130_fd_sc_hd__diode_2
*I *343:HI O *D sky130_fd_sc_hd__conb_1
*CAP
1 HI[13] 0.000137573
2 *146:DIODE 0.000240386
3 *343:HI 9.71684e-05
4 *5:8 0.000475127
5 HI[13] HI[14] 0.000249734
6 *146:DIODE HI[14] 9.23705e-06
7 *146:DIODE *157:DIODE 2.61151e-05
8 *146:DIODE *9:12 0.000106695
9 HI[12] HI[13] 0.000237046
10 *135:DIODE HI[13] 1.0402e-05
11 *135:DIODE *146:DIODE 7.98532e-05
12 *3:8 *146:DIODE 2.93845e-05
13 *4:8 *5:8 5.52998e-05
*RES
1 *343:HI *5:8 39.5743 
2 *5:8 *146:DIODE 42.6607 
3 *5:8 HI[13] 6.235 
*END

*D_NET *6 0.00162804
*CONN
*P HI[14] O
*I *157:DIODE I *D sky130_fd_sc_hd__diode_2
*I *354:HI O *D sky130_fd_sc_hd__conb_1
*CAP
1 HI[14] 0.00023028
2 *157:DIODE 0.000135296
3 *354:HI 5.59455e-05
4 *6:8 0.000421521
5 HI[14] HI[15] 0.000232414
6 HI[14] *168:DIODE 6.18229e-05
7 HI[14] *9:12 9.39096e-05
8 *157:DIODE *168:DIODE 0.000101218
9 *157:DIODE *9:12 1.05441e-05
10 HI[13] HI[14] 0.000249734
11 *135:DIODE *157:DIODE 0
12 *146:DIODE HI[14] 9.23705e-06
13 *146:DIODE *157:DIODE 2.61151e-05
*RES
1 *354:HI *6:8 38.6214 
2 *6:8 *157:DIODE 40.9621 
3 *6:8 HI[14] 7.99571 
*END

*D_NET *7 0.00167252
*CONN
*P HI[15] O
*I *168:DIODE I *D sky130_fd_sc_hd__diode_2
*I *365:HI O *D sky130_fd_sc_hd__conb_1
*CAP
1 HI[15] 0.000119129
2 *168:DIODE 0.000227592
3 *365:HI 6.32191e-05
4 *7:8 0.00040994
5 HI[15] HI[16] 0.000237046
6 *168:DIODE HI[16] 5.93343e-05
7 *168:DIODE *179:DIODE 0.000103535
8 *7:8 HI[17] 2.86326e-05
9 *7:8 *9:12 2.86398e-05
10 HI[14] HI[15] 0.000232414
11 HI[14] *168:DIODE 6.18229e-05
12 *157:DIODE *168:DIODE 0.000101218
*RES
1 *365:HI *7:8 39.0979 
2 *7:8 *168:DIODE 43.075 
3 *7:8 HI[15] 5.88286 
*END

*D_NET *8 0.00155221
*CONN
*P HI[16] O
*I *179:DIODE I *D sky130_fd_sc_hd__diode_2
*I *376:HI O *D sky130_fd_sc_hd__conb_1
*CAP
1 HI[16] 0.000248444
2 *179:DIODE 0.000141114
3 *376:HI 5.59455e-05
4 *8:8 0.000445503
5 HI[16] HI[17] 0.000261288
6 *179:DIODE *92:DIODE 0
7 HI[15] HI[16] 0.000237046
8 *168:DIODE HI[16] 5.93343e-05
9 *168:DIODE *179:DIODE 0.000103535
*RES
1 *376:HI *8:8 38.6214 
2 *8:8 *179:DIODE 40.9621 
3 *8:8 HI[16] 7.99571 
*END

*D_NET *9 0.00171938
*CONN
*P HI[17] O
*I *182:DIODE I *D sky130_fd_sc_hd__diode_2
*I *387:HI O *D sky130_fd_sc_hd__conb_1
*CAP
1 HI[17] 0.000320905
2 *182:DIODE 0
3 *387:HI 0
4 *9:12 0.000141948
5 *9:4 0.000462852
6 HI[17] HI[18] 0.00025779
7 HI[17] *11:8 6.17437e-06
8 HI[14] *9:12 9.39096e-05
9 HI[16] HI[17] 0.000261288
10 *146:DIODE *9:12 0.000106695
11 *157:DIODE *9:12 1.05441e-05
12 *7:8 HI[17] 2.86326e-05
13 *7:8 *9:12 2.86398e-05
*RES
1 *387:HI *9:4 23 
2 *9:4 *9:12 32.6514 
3 *9:12 *182:DIODE 23 
4 *9:4 HI[17] 24.1143 
*END

*D_NET *10 0.00174683
*CONN
*P HI[18] O
*I *92:DIODE I *D sky130_fd_sc_hd__diode_2
*I *300:HI O *D sky130_fd_sc_hd__conb_1
*CAP
1 HI[18] 0.000245661
2 *92:DIODE 0.000241066
3 *300:HI 5.59455e-05
4 *10:8 0.000542672
5 HI[18] HI[19] 0.000232414
6 HI[18] *93:DIODE 6.51641e-05
7 *92:DIODE *93:DIODE 0.000106122
8 HI[17] HI[18] 0.00025779
9 *179:DIODE *92:DIODE 0
*RES
1 *300:HI *10:8 38.6214 
2 *10:8 *92:DIODE 42.06 
3 *10:8 HI[18] 7.99571 
*END

*D_NET *11 0.00201042
*CONN
*P HI[19] O
*I *93:DIODE I *D sky130_fd_sc_hd__diode_2
*I *301:HI O *D sky130_fd_sc_hd__conb_1
*CAP
1 HI[19] 0.000119129
2 *93:DIODE 0.000336851
3 *301:HI 0.000130019
4 *11:8 0.000585999
5 HI[19] HI[20] 0.000237046
6 *93:DIODE HI[20] 2.19562e-05
7 *93:DIODE *95:DIODE 0.000140914
8 *11:8 *13:8 2.86326e-05
9 HI[17] *11:8 6.17437e-06
10 HI[18] HI[19] 0.000232414
11 HI[18] *93:DIODE 6.51641e-05
12 *92:DIODE *93:DIODE 0.000106122
*RES
1 *301:HI *11:8 40.0507 
2 *11:8 *93:DIODE 44.8771 
3 *11:8 HI[19] 5.88286 
*END

*D_NET *12 0.00179614
*CONN
*P HI[1] O
*I *94:DIODE I *D sky130_fd_sc_hd__diode_2
*I *302:HI O *D sky130_fd_sc_hd__conb_1
*CAP
1 HI[1] 6.67555e-05
2 *94:DIODE 0.000152673
3 *302:HI 1.87173e-05
4 *12:23 0.00030366
5 *12:6 0.000408294
6 HI[1] HI[2] 0.000153248
7 *94:DIODE *106:DIODE 0.000178517
8 *94:DIODE *130:DIODE 9.92345e-05
9 *12:6 *106:DIODE 5.3304e-05
10 *12:6 *130:DIODE 4.19304e-05
11 HI[0] HI[1] 0.000155513
12 HI[0] *12:23 0.000164291
*RES
1 *302:HI *12:6 23.6214 
2 *12:6 *94:DIODE 26.0036 
3 *12:6 *12:23 48.8321 
4 *12:23 HI[1] 3.77 
*END

*D_NET *13 0.00183545
*CONN
*P HI[20] O
*I *95:DIODE I *D sky130_fd_sc_hd__diode_2
*I *303:HI O *D sky130_fd_sc_hd__conb_1
*CAP
1 HI[20] 0.000156633
2 *95:DIODE 0.000238944
3 *303:HI 0.000106576
4 *13:8 0.000502152
5 HI[20] HI[21] 0.000232414
6 HI[20] *96:DIODE 2.53762e-05
7 *95:DIODE *96:DIODE 0.00013863
8 *13:8 *14:8 6.17437e-06
9 HI[19] HI[20] 0.000237046
10 *93:DIODE HI[20] 2.19562e-05
11 *93:DIODE *95:DIODE 0.000140914
12 *11:8 *13:8 2.86326e-05
*RES
1 *303:HI *13:8 39.5743 
2 *13:8 *95:DIODE 42.9921 
3 *13:8 HI[20] 6.58714 
*END

*D_NET *14 0.00163615
*CONN
*P HI[21] O
*I *96:DIODE I *D sky130_fd_sc_hd__diode_2
*I *304:HI O *D sky130_fd_sc_hd__conb_1
*CAP
1 HI[21] 0.000119129
2 *96:DIODE 0.000220335
3 *304:HI 7.5686e-05
4 *14:8 0.00041515
5 HI[21] HI[22] 0.000237046
6 *96:DIODE HI[22] 8.99518e-05
7 *96:DIODE *97:DIODE 7.62591e-05
8 HI[20] HI[21] 0.000232414
9 HI[20] *96:DIODE 2.53762e-05
10 *95:DIODE *96:DIODE 0.00013863
11 *13:8 *14:8 6.17437e-06
*RES
1 *304:HI *14:8 39.0979 
2 *14:8 *96:DIODE 43.075 
3 *14:8 HI[21] 5.88286 
*END

*D_NET *15 0.00187596
*CONN
*P HI[22] O
*I *97:DIODE I *D sky130_fd_sc_hd__diode_2
*I *305:HI O *D sky130_fd_sc_hd__conb_1
*CAP
1 HI[22] 0.000250373
2 *97:DIODE 0.000241627
3 *305:HI 3.14062e-05
4 *15:8 0.000523405
5 HI[22] HI[23] 0.000232414
6 HI[22] *98:DIODE 9.03137e-05
7 *97:DIODE *98:DIODE 7.37831e-05
8 *15:8 *99:DIODE 2.93845e-05
9 HI[21] HI[22] 0.000237046
10 *96:DIODE HI[22] 8.99518e-05
11 *96:DIODE *97:DIODE 7.62591e-05
*RES
1 *305:HI *15:8 38.6214 
2 *15:8 *97:DIODE 42.6607 
3 *15:8 HI[22] 8.7 
*END

*D_NET *16 0.00165197
*CONN
*P HI[23] O
*I *98:DIODE I *D sky130_fd_sc_hd__diode_2
*I *306:HI O *D sky130_fd_sc_hd__conb_1
*CAP
1 HI[23] 0.000119129
2 *98:DIODE 0.000266418
3 *306:HI 6.50816e-05
4 *16:8 0.000450629
5 HI[23] HI[24] 0.000237046
6 *98:DIODE HI[24] 1.0402e-05
7 *98:DIODE HI[25] 0
8 *98:DIODE *99:DIODE 5.1455e-05
9 *98:DIODE *100:DIODE 0
10 *16:8 *17:8 5.52998e-05
11 HI[22] HI[23] 0.000232414
12 HI[22] *98:DIODE 9.03137e-05
13 *97:DIODE *98:DIODE 7.37831e-05
*RES
1 *306:HI *16:8 39.0979 
2 *16:8 *98:DIODE 43.075 
3 *16:8 HI[23] 5.88286 
*END

*D_NET *17 0.00171726
*CONN
*P HI[24] O
*I *99:DIODE I *D sky130_fd_sc_hd__diode_2
*I *307:HI O *D sky130_fd_sc_hd__conb_1
*CAP
1 HI[24] 0.000137573
2 *99:DIODE 0.000281503
3 *307:HI 9.71684e-05
4 *17:8 0.000516244
5 HI[24] HI[25] 0.000249734
6 *99:DIODE HI[25] 5.1455e-05
7 HI[23] HI[24] 0.000237046
8 *98:DIODE HI[24] 1.0402e-05
9 *98:DIODE *99:DIODE 5.1455e-05
10 *15:8 *99:DIODE 2.93845e-05
11 *16:8 *17:8 5.52998e-05
*RES
1 *307:HI *17:8 39.5743 
2 *17:8 *99:DIODE 41.9564 
3 *17:8 HI[24] 6.235 
*END

*D_NET *18 0.00186215
*CONN
*P HI[25] O
*I *100:DIODE I *D sky130_fd_sc_hd__diode_2
*I *308:HI O *D sky130_fd_sc_hd__conb_1
*CAP
1 HI[25] 0.000264466
2 *100:DIODE 0.000271663
3 *308:HI 3.14062e-05
4 *18:8 0.000567535
5 HI[25] HI[26] 0.000232414
6 HI[25] *101:DIODE 9.03137e-05
7 *100:DIODE *101:DIODE 7.37831e-05
8 *18:8 *103:DIODE 2.93845e-05
9 HI[24] HI[25] 0.000249734
10 *98:DIODE HI[25] 0
11 *98:DIODE *100:DIODE 0
12 *99:DIODE HI[25] 5.1455e-05
*RES
1 *308:HI *18:8 38.6214 
2 *18:8 *100:DIODE 42.6607 
3 *18:8 HI[25] 8.7 
*END

*D_NET *19 0.00165197
*CONN
*P HI[26] O
*I *101:DIODE I *D sky130_fd_sc_hd__diode_2
*I *309:HI O *D sky130_fd_sc_hd__conb_1
*CAP
1 HI[26] 0.000119129
2 *101:DIODE 0.000266418
3 *309:HI 6.50816e-05
4 *19:8 0.000450629
5 HI[26] HI[27] 0.000237046
6 *101:DIODE HI[27] 1.0402e-05
7 *101:DIODE *103:DIODE 5.1455e-05
8 *101:DIODE *104:DIODE 0
9 *19:8 *20:8 5.52998e-05
10 HI[25] HI[26] 0.000232414
11 HI[25] *101:DIODE 9.03137e-05
12 *100:DIODE *101:DIODE 7.37831e-05
*RES
1 *309:HI *19:8 39.0979 
2 *19:8 *101:DIODE 43.075 
3 *19:8 HI[26] 5.88286 
*END

*D_NET *20 0.00171726
*CONN
*P HI[27] O
*I *103:DIODE I *D sky130_fd_sc_hd__diode_2
*I *311:HI O *D sky130_fd_sc_hd__conb_1
*CAP
1 HI[27] 0.000137573
2 *103:DIODE 0.000281503
3 *311:HI 9.71684e-05
4 *20:8 0.000516244
5 HI[27] HI[28] 0.000249734
6 *103:DIODE HI[28] 4.8035e-05
7 *103:DIODE *104:DIODE 3.41998e-06
8 HI[26] HI[27] 0.000237046
9 *101:DIODE HI[27] 1.0402e-05
10 *101:DIODE *103:DIODE 5.1455e-05
11 *18:8 *103:DIODE 2.93845e-05
12 *19:8 *20:8 5.52998e-05
*RES
1 *311:HI *20:8 39.5743 
2 *20:8 *103:DIODE 41.9564 
3 *20:8 HI[27] 6.235 
*END

*D_NET *21 0.0019678
*CONN
*P HI[28] O
*I *104:DIODE I *D sky130_fd_sc_hd__diode_2
*I *312:HI O *D sky130_fd_sc_hd__conb_1
*CAP
1 HI[28] 0.000232524
2 *104:DIODE 0.00029965
3 *312:HI 4.92925e-05
4 *21:8 0.000581467
5 HI[28] HI[29] 0.000232414
6 HI[28] *105:DIODE 6.51641e-05
7 *104:DIODE *105:DIODE 0.000192164
8 *21:8 *107:DIODE 1.39317e-05
9 HI[27] HI[28] 0.000249734
10 *101:DIODE *104:DIODE 0
11 *103:DIODE HI[28] 4.8035e-05
12 *103:DIODE *104:DIODE 3.41998e-06
*RES
1 *312:HI *21:8 38.6214 
2 *21:8 *104:DIODE 43.655 
3 *21:8 HI[28] 7.99571 
*END

*D_NET *22 0.00174173
*CONN
*P HI[29] O
*I *105:DIODE I *D sky130_fd_sc_hd__diode_2
*I *313:HI O *D sky130_fd_sc_hd__conb_1
*CAP
1 HI[29] 0.000119129
2 *105:DIODE 0.000235726
3 *313:HI 6.50816e-05
4 *22:8 0.000419937
5 HI[29] HI[30] 0.000237046
6 *105:DIODE HI[30] 1.0402e-05
7 *105:DIODE *107:DIODE 0.000109366
8 *105:DIODE *108:DIODE 0
9 *22:8 *24:8 5.52998e-05
10 HI[28] HI[29] 0.000232414
11 HI[28] *105:DIODE 6.51641e-05
12 *104:DIODE *105:DIODE 0.000192164
*RES
1 *313:HI *22:8 39.0979 
2 *22:8 *105:DIODE 43.075 
3 *22:8 HI[29] 5.88286 
*END

*D_NET *23 0.00198513
*CONN
*P HI[2] O
*I *106:DIODE I *D sky130_fd_sc_hd__diode_2
*I *314:HI O *D sky130_fd_sc_hd__conb_1
*CAP
1 HI[2] 0.000262761
2 *106:DIODE 0.000297787
3 *314:HI 0
4 *23:4 0.000560547
5 HI[2] HI[3] 0.000328106
6 HI[2] *130:DIODE 9.61729e-05
7 *106:DIODE *130:DIODE 5.46873e-05
8 HI[0] HI[2] 0
9 HI[1] HI[2] 0.000153248
10 *94:DIODE *106:DIODE 0.000178517
11 *12:6 *106:DIODE 5.3304e-05
*RES
1 *314:HI *23:4 23 
2 *23:4 *106:DIODE 27.4536 
3 *23:4 HI[2] 22.7471 
*END

*D_NET *24 0.0018585
*CONN
*P HI[30] O
*I *107:DIODE I *D sky130_fd_sc_hd__diode_2
*I *315:HI O *D sky130_fd_sc_hd__conb_1
*CAP
1 HI[30] 0.000137573
2 *107:DIODE 0.000270839
3 *315:HI 9.71684e-05
4 *24:8 0.00050558
5 HI[30] HI[31] 0.000249734
6 *107:DIODE HI[31] 9.23705e-06
7 *107:DIODE *108:DIODE 5.56277e-05
8 *107:DIODE *28:12 0.000106695
9 HI[29] HI[30] 0.000237046
10 *105:DIODE HI[30] 1.0402e-05
11 *105:DIODE *107:DIODE 0.000109366
12 *21:8 *107:DIODE 1.39317e-05
13 *22:8 *24:8 5.52998e-05
*RES
1 *315:HI *24:8 39.5743 
2 *24:8 *107:DIODE 43.365 
3 *24:8 HI[30] 6.235 
*END

*D_NET *25 0.00196123
*CONN
*P HI[31] O
*I *108:DIODE I *D sky130_fd_sc_hd__diode_2
*I *316:HI O *D sky130_fd_sc_hd__conb_1
*CAP
1 HI[31] 0.00023028
2 *108:DIODE 0.000284051
3 *316:HI 5.59455e-05
4 *25:8 0.000570276
5 HI[31] HI[32] 0.000232414
6 HI[31] *109:DIODE 6.18229e-05
7 HI[31] *28:12 9.39096e-05
8 *108:DIODE *109:DIODE 0.000101218
9 *108:DIODE *110:DIODE 6.17437e-06
10 *108:DIODE *28:12 1.05441e-05
11 HI[30] HI[31] 0.000249734
12 *105:DIODE *108:DIODE 0
13 *107:DIODE HI[31] 9.23705e-06
14 *107:DIODE *108:DIODE 5.56277e-05
*RES
1 *316:HI *25:8 38.6214 
2 *25:8 *108:DIODE 43.365 
3 *25:8 HI[31] 7.99571 
*END

*D_NET *26 0.00167252
*CONN
*P HI[32] O
*I *109:DIODE I *D sky130_fd_sc_hd__diode_2
*I *317:HI O *D sky130_fd_sc_hd__conb_1
*CAP
1 HI[32] 0.000119129
2 *109:DIODE 0.000227592
3 *317:HI 6.32191e-05
4 *26:8 0.00040994
5 HI[32] HI[33] 0.000237046
6 *109:DIODE HI[33] 5.93343e-05
7 *109:DIODE *110:DIODE 0.000103535
8 *26:8 HI[34] 2.86326e-05
9 *26:8 *28:12 2.86398e-05
10 HI[31] HI[32] 0.000232414
11 HI[31] *109:DIODE 6.18229e-05
12 *108:DIODE *109:DIODE 0.000101218
*RES
1 *317:HI *26:8 39.0979 
2 *26:8 *109:DIODE 43.075 
3 *26:8 HI[32] 5.88286 
*END

*D_NET *27 0.00209482
*CONN
*P HI[33] O
*I *110:DIODE I *D sky130_fd_sc_hd__diode_2
*I *318:HI O *D sky130_fd_sc_hd__conb_1
*CAP
1 HI[33] 0.000248444
2 *110:DIODE 0.000359244
3 *318:HI 5.59455e-05
4 *27:8 0.000663633
5 HI[33] HI[34] 0.000261288
6 *110:DIODE *112:DIODE 0.00010018
7 HI[32] HI[33] 0.000237046
8 *108:DIODE *110:DIODE 6.17437e-06
9 *109:DIODE HI[33] 5.93343e-05
10 *109:DIODE *110:DIODE 0.000103535
*RES
1 *318:HI *27:8 38.6214 
2 *27:8 *110:DIODE 45.0221 
3 *27:8 HI[33] 7.99571 
*END

*D_NET *28 0.00171938
*CONN
*P HI[34] O
*I *111:DIODE I *D sky130_fd_sc_hd__diode_2
*I *319:HI O *D sky130_fd_sc_hd__conb_1
*CAP
1 HI[34] 0.000320905
2 *111:DIODE 0
3 *319:HI 0
4 *28:12 0.000141948
5 *28:4 0.000462852
6 HI[34] HI[35] 0.00025779
7 HI[34] *30:8 6.17437e-06
8 HI[31] *28:12 9.39096e-05
9 HI[33] HI[34] 0.000261288
10 *107:DIODE *28:12 0.000106695
11 *108:DIODE *28:12 1.05441e-05
12 *26:8 HI[34] 2.86326e-05
13 *26:8 *28:12 2.86398e-05
*RES
1 *319:HI *28:4 23 
2 *28:4 *28:12 32.6514 
3 *28:12 *111:DIODE 23 
4 *28:4 HI[34] 24.1143 
*END

*D_NET *29 0.00252184
*CONN
*P HI[35] O
*I *112:DIODE I *D sky130_fd_sc_hd__diode_2
*I *320:HI O *D sky130_fd_sc_hd__conb_1
*CAP
1 HI[35] 0.000233807
2 *112:DIODE 0.000384104
3 *320:HI 6.27375e-05
4 *29:8 0.000680649
5 HI[35] HI[36] 0.000232414
6 HI[35] *114:DIODE 0.00013456
7 *112:DIODE *114:DIODE 0.000215718
8 *112:DIODE *115:DIODE 0.000189082
9 *112:DIODE *119:DIODE 3.07986e-05
10 HI[34] HI[35] 0.00025779
11 *110:DIODE *112:DIODE 0.00010018
*RES
1 *320:HI *29:8 38.6214 
2 *29:8 *112:DIODE 46.5757 
3 *29:8 HI[35] 7.99571 
*END

*D_NET *30 0.00200013
*CONN
*P HI[36] O
*I *114:DIODE I *D sky130_fd_sc_hd__diode_2
*I *322:HI O *D sky130_fd_sc_hd__conb_1
*CAP
1 HI[36] 0.000125174
2 *114:DIODE 0.000255467
3 *322:HI 0.000126959
4 *30:8 0.000507601
5 HI[36] HI[37] 0.000233538
6 *114:DIODE HI[37] 4.36682e-05
7 *114:DIODE *115:DIODE 6.3848e-05
8 *30:8 *117:DIODE 5.50049e-05
9 HI[34] *30:8 6.17437e-06
10 HI[35] HI[36] 0.000232414
11 HI[35] *114:DIODE 0.00013456
12 *112:DIODE *114:DIODE 0.000215718
*RES
1 *322:HI *30:8 40.0507 
2 *30:8 *114:DIODE 43.8414 
3 *30:8 HI[36] 5.88286 
*END

*D_NET *31 0.00200431
*CONN
*P HI[37] O
*I *115:DIODE I *D sky130_fd_sc_hd__diode_2
*I *323:HI O *D sky130_fd_sc_hd__conb_1
*CAP
1 HI[37] 0.000248266
2 *115:DIODE 0.000235233
3 *323:HI 5.59455e-05
4 *31:8 0.000539445
5 HI[37] HI[38] 0.000228907
6 HI[37] *116:DIODE 6.51641e-05
7 *115:DIODE *116:DIODE 0.000101218
8 HI[36] HI[37] 0.000233538
9 *112:DIODE *115:DIODE 0.000189082
10 *114:DIODE HI[37] 4.36682e-05
11 *114:DIODE *115:DIODE 6.3848e-05
*RES
1 *323:HI *31:8 38.6214 
2 *31:8 *115:DIODE 43.365 
3 *31:8 HI[37] 7.99571 
*END

*D_NET *32 0.00165481
*CONN
*P HI[38] O
*I *116:DIODE I *D sky130_fd_sc_hd__diode_2
*I *324:HI O *D sky130_fd_sc_hd__conb_1
*CAP
1 HI[38] 0.000131219
2 *116:DIODE 0.000229943
3 *324:HI 5.20774e-05
4 *32:8 0.000413239
5 HI[38] HI[39] 0.000233538
6 *116:DIODE HI[39] 4.6318e-06
7 *116:DIODE HI[40] 4.02448e-05
8 *116:DIODE *119:DIODE 5.78387e-05
9 *32:8 *117:DIODE 9.67842e-05
10 HI[37] HI[38] 0.000228907
11 HI[37] *116:DIODE 6.51641e-05
12 *115:DIODE *116:DIODE 0.000101218
*RES
1 *324:HI *32:8 39.0979 
2 *32:8 *116:DIODE 43.075 
3 *32:8 HI[38] 5.88286 
*END

*D_NET *33 0.00149497
*CONN
*P HI[39] O
*I *117:DIODE I *D sky130_fd_sc_hd__diode_2
*I *325:HI O *D sky130_fd_sc_hd__conb_1
*CAP
1 HI[39] 0.000175353
2 *117:DIODE 0.000200061
3 *325:HI 0
4 *33:4 0.000375414
5 HI[39] HI[40] 0.000354184
6 HI[38] HI[39] 0.000233538
7 *116:DIODE HI[39] 4.6318e-06
8 *30:8 *117:DIODE 5.50049e-05
9 *32:8 *117:DIODE 9.67842e-05
*RES
1 *325:HI *33:4 23 
2 *33:4 *117:DIODE 26.5007 
3 *33:4 HI[39] 21.5043 
*END

*D_NET *34 0.00188647
*CONN
*P HI[3] O
*I *118:DIODE I *D sky130_fd_sc_hd__diode_2
*I *326:HI O *D sky130_fd_sc_hd__conb_1
*CAP
1 HI[3] 0.000266471
2 *118:DIODE 0.000326791
3 *326:HI 4.63607e-05
4 *34:8 0.000639623
5 HI[3] HI[4] 0.000249734
6 *118:DIODE *142:DIODE 0
7 *118:DIODE *154:DIODE 0
8 *34:8 *142:DIODE 2.93845e-05
9 HI[2] HI[3] 0.000328106
*RES
1 *326:HI *34:8 38.6214 
2 *34:8 *118:DIODE 42.5364 
3 *34:8 HI[3] 7.99571 
*END

*D_NET *35 0.00237267
*CONN
*P HI[40] O
*I *119:DIODE I *D sky130_fd_sc_hd__diode_2
*I *327:HI O *D sky130_fd_sc_hd__conb_1
*CAP
1 HI[40] 0.000238622
2 *119:DIODE 0.000384405
3 *327:HI 8.23627e-05
4 *35:8 0.00070539
5 HI[40] HI[41] 0.000319366
6 HI[40] *120:DIODE 0.00015946
7 HI[39] HI[40] 0.000354184
8 *112:DIODE *119:DIODE 3.07986e-05
9 *116:DIODE HI[40] 4.02448e-05
10 *116:DIODE *119:DIODE 5.78387e-05
*RES
1 *327:HI *35:8 39.0979 
2 *35:8 *119:DIODE 43.1371 
3 *35:8 HI[40] 9.11429 
*END

*D_NET *36 0.00141544
*CONN
*P HI[41] O
*I *120:DIODE I *D sky130_fd_sc_hd__diode_2
*I *328:HI O *D sky130_fd_sc_hd__conb_1
*CAP
1 HI[41] 0.000225469
2 *120:DIODE 0.000167536
3 *328:HI 0
4 *36:6 0.000393006
5 HI[41] HI[42] 0.000150601
6 HI[40] HI[41] 0.000319366
7 HI[40] *120:DIODE 0.00015946
*RES
1 *328:HI *36:6 38 
2 *36:6 *120:DIODE 40.2579 
3 *36:6 HI[41] 7.12571 
*END

*D_NET *37 0.00150286
*CONN
*P HI[42] O
*I *121:DIODE I *D sky130_fd_sc_hd__diode_2
*I *329:HI O *D sky130_fd_sc_hd__conb_1
*CAP
1 HI[42] 0.000190585
2 *121:DIODE 0.000151981
3 *329:HI 9.0895e-05
4 *37:8 0.000433461
5 HI[42] HI[43] 0.000317962
6 HI[42] *122:DIODE 1.01436e-05
7 *121:DIODE *122:DIODE 0.000157229
8 HI[41] HI[42] 0.000150601
*RES
1 *329:HI *37:8 39.0979 
2 *37:8 *121:DIODE 40.2579 
3 *37:8 HI[42] 6.64929 
*END

*D_NET *38 0.00153867
*CONN
*P HI[43] O
*I *122:DIODE I *D sky130_fd_sc_hd__diode_2
*I *330:HI O *D sky130_fd_sc_hd__conb_1
*CAP
1 HI[43] 0.000149785
2 *122:DIODE 0.00030158
3 *330:HI 0
4 *38:6 0.000451365
5 HI[43] HI[44] 0.000150601
6 HI[42] HI[43] 0.000317962
7 HI[42] *122:DIODE 1.01436e-05
8 *121:DIODE *122:DIODE 0.000157229
*RES
1 *330:HI *38:6 38 
2 *38:6 *122:DIODE 42.64 
3 *38:6 HI[43] 5.88286 
*END

*D_NET *39 0.00189632
*CONN
*P HI[44] O
*I *123:DIODE I *D sky130_fd_sc_hd__diode_2
*I *331:HI O *D sky130_fd_sc_hd__conb_1
*CAP
1 HI[44] 0.000245502
2 *123:DIODE 0.00021634
3 *331:HI 0.0001066
4 *39:8 0.000568442
5 HI[44] HI[45] 0.000362656
6 *123:DIODE HI[45] 2.40336e-05
7 *123:DIODE *125:DIODE 0.00012797
8 *39:8 *40:8 9.41704e-05
9 HI[43] HI[44] 0.000150601
*RES
1 *331:HI *39:8 39.5743 
2 *39:8 *123:DIODE 40.8793 
3 *39:8 HI[44] 8.07857 
*END

*D_NET *40 0.00185698
*CONN
*P HI[45] O
*I *125:DIODE I *D sky130_fd_sc_hd__diode_2
*I *333:HI O *D sky130_fd_sc_hd__conb_1
*CAP
1 HI[45] 0.000174744
2 *125:DIODE 8.36007e-05
3 *333:HI 0.000104199
4 *40:8 0.000362544
5 HI[45] HI[46] 0.000389893
6 *125:DIODE HI[46] 4.80045e-05
7 *125:DIODE *126:DIODE 7.89883e-05
8 *40:8 *41:8 6.17437e-06
9 HI[44] HI[45] 0.000362656
10 *123:DIODE HI[45] 2.40336e-05
11 *123:DIODE *125:DIODE 0.00012797
12 *39:8 *40:8 9.41704e-05
*RES
1 *333:HI *40:8 39.5743 
2 *40:8 *125:DIODE 39.9057 